336
Properties=species:S:1:pos:R:3:initial_charges:R:1:tags:I:1 pbc="F F F"
Ti     -12.24367809       6.31787300      -1.09608555       1.83704900        0
Ti     -13.30857086       3.65360808      -2.54397178       1.81312100        1
Ti     -12.93881512       7.14483023       1.96600306       1.62389500        2
Ti     -11.62418747       2.82819819      -0.36870342       1.87918900        3
O      -13.39726925       8.24309444       2.97012067      -0.52745400        0
O      -10.71685696       7.25218868      -1.88996553      -0.89759600        1
O      -13.42187977       2.99334884      -0.90946180      -0.80422300        2
O      -13.33036613       5.54271889      -2.29672527      -0.96317000        3
O      -13.11317539       7.30254269       0.00815343      -0.90213600        4
O      -11.46638298       3.47048783      -2.46955895      -1.06104500        5
O      -11.57189846       4.88345528      -0.00133432      -1.13504800        6
Ti     -11.48118687       4.85804510       1.97419357       1.76773000        4
O       -9.97200012       4.12639999       3.15613890      -0.74524700        7
O      -11.08563614       6.56944561       2.06133103      -0.83524700        8
O      -11.57995129       2.58824682       1.41042101      -0.99089900        9
O      -13.09610176       5.21154356       2.43473125      -0.79421900       10
O       -9.57867336       2.97425652      -0.84192848      -0.98863100       11
O       -9.14000034       5.24628258      -2.84080672      -0.93229000       12
Ti      -9.05617809       6.76052856      -1.92197108       1.82198800        5
O       -9.16630077       1.70383048       4.04646206      -0.76965600       13
O      -13.83421993       2.37385321      -3.64367533      -0.98639700       14
O      -11.58755398       0.97577709      -0.54728067      -1.03865000       15
Ti     -11.81060791       0.56462598       1.47603536       1.87981300        6
Ti     -13.27286053      -0.74609429       3.67152762       1.69410000        7
O      -11.42048645      -0.07119074       3.36451483      -1.11101800       16
O      -13.40459061       0.28815943       1.93005633      -0.75045700       17
O      -13.95402145      -0.03219628       4.85694647      -0.49268700       18
Ti      -9.62820911       3.42193103      -2.79217482       1.90185600        8
O       -9.56811047       2.23911738      -4.03851318      -0.81904200       19
Ti      -9.53707218       0.14133549       3.61908960       1.85391200        9
O       -9.47175598       0.22890204       1.72779596      -0.88987300       20
Ti     -13.33112717       0.50665307      -3.64638352       1.69073700       10
Ti     -11.75717449      -0.74003685      -1.52649426       1.87639100       11
O      -13.37503624      -0.63058519      -1.96488965      -0.75397000       21
O      -13.88215923      -0.24358042      -4.87776804      -0.49782600       22
O      -11.42541218       0.09487436      -3.27045012      -1.12135600       23
O      -11.56859493      -1.18183839       0.54576486      -1.03924400       24
O      -13.60408115      -2.65211630       3.72539115      -0.99078300       25
Ti      -9.59744740       0.27281293      -3.97674370       1.78466100       12
O       -9.49986362      -0.82919902      -1.80400860      -0.87958700       26
O       -9.41879845      -2.02043462       4.05682182      -0.80126700       27
Ti      -9.36567497      -3.27894306       2.98640680       1.87980300       13
O       -9.65618324      -0.25674382      -5.42191696      -0.58767400       28
Ti     -10.93430710      -4.73633480      -1.93336236       1.77441700       14
O      -12.16642475      -5.62996054      -2.64202332      -0.80167900       29
O       -9.42534733      -4.29021358      -3.03868127      -0.81327300       30
O      -11.44370174      -2.83931804      -1.40890443      -0.97467100       31
O      -10.04380989      -6.61693478      -1.60837877      -0.83769900       32
Ti     -11.45893669      -2.96785903       0.45997128       1.88328100       15
Ti     -11.77521324      -7.46885061      -1.85674095       1.62431600       16
Ti     -12.99603844      -3.92742658       2.65400934       1.81565800       17
Ti     -11.63221550      -6.44185925       1.12425220       1.83617900       18
O      -11.21760082      -3.51003504       2.53067875      -1.05686500       33
O      -12.33493805      -7.56489420      -0.00267298      -0.89722500       34
O      -11.19574356      -4.97176695       0.01041367      -1.13409100       35
O      -13.22290421      -3.33242488       1.00675869      -0.80146800       36
O      -11.83719444      -8.74929047      -2.72810888      -0.52488300       37
O       -9.85964394      -7.05190468       1.63752866      -0.88128900       38
O      -12.75366116      -5.82866716       2.37020779      -0.97285900       39
O       -9.38632965      -3.03492761       0.93017322      -0.95560300       40
O       -8.93330097      -5.15311575       3.39407635      -0.90077600       41
Ti      -8.39230061      -6.30197430       2.20241189       1.82759400       19
Ti      -8.43494415       3.56998706       3.12377095       1.90457000       20
O       -7.68618441       5.16965675       2.28583956      -0.92931800       42
Ti      -5.64314365       6.63957167      -2.05825901       1.82525000       21
Ti      -5.95730972       3.17087579      -2.77936864       1.93841100       22
Ti      -7.85001087       2.76723504      -0.31712675       1.98035500       23
O       -5.51559782       6.66711950      -0.04197166      -1.15131300       43
O       -5.68971348       2.69220138      -0.94353825      -0.90497500       44
O       -5.67849445       5.04932165      -2.83771563      -0.92350700       45
O       -7.10898018       7.42418242      -2.38945007      -0.86612400       46
O       -7.24281025       4.57012224      -0.30097991      -0.91352400       47
Ti      -7.30946970       5.92380428       0.74717665       1.81306000       24
Ti      -5.59276915       3.07562232       4.65096951       1.79957000       25
O       -7.16420984       3.71316910       4.72017145      -0.83482600       48
O       -8.65002632       6.75327253      -0.12766922      -0.89608600       49
O       -5.38589907       3.56678820       2.80267549      -0.76917800       50
Ti      -3.80091596       6.23794508       0.60450804       1.82392600       26
Ti      -3.89874411       2.71969390      -0.57218581       1.96775100       27
O       -3.76228905       7.29092121      -2.27326846      -1.05692800       51
O       -3.83673716       3.06189513      -2.51195073      -0.99487500       52
O       -3.85018206       4.50114727       0.42471099      -0.99402400       53
Ti      -3.76472163       4.02991772       2.49676204       1.87840200       28
O       -3.63834071       3.74499273       4.56770802      -1.13983300       54
O       -3.76289654       6.03092957       2.31711030      -0.81026100       55
O       -3.46533918       2.35840201       1.50928581      -1.01963500       56
O       -7.92866993       2.45965171       1.52070785      -1.08425400       57
O       -7.64197969       2.97368312      -2.45565510      -0.96884900       58
O       -5.76067257       1.72368646      -4.02000904      -0.89017300       59
O       -7.69374943       0.86118180      -0.51605117      -1.02076500       60
Ti      -7.69511604       0.27178362       1.30082214       1.94452900       29
Ti      -5.80102730      -0.17873393       3.70283103       1.93195800       30
O       -7.55231571      -0.21382454       3.29326749      -1.02166000       61
O       -5.67183161       0.46008030       1.88580966      -0.99607900       62
O       -5.69612360       1.33344221       4.86137056      -0.91602700       63
O       -3.70336914       0.95500010      -0.51178730      -1.00625700       64
Ti      -3.80785728       0.52853459       1.51345527       2.00014300       31
O       -3.75168085       0.13506578       3.38568950      -1.02228400       65
Ti      -5.88047743      -0.03221671      -3.80299830       1.92779700       32
Ti      -7.87687540      -0.89287806      -1.51409793       1.93187200       33
O       -5.70133162      -0.61787403      -1.98207355      -0.98519600       66
O       -5.61501980      -1.50508273      -5.01210642      -0.90901300       67
O       -7.68622303      -0.26156726      -3.40391850      -1.03198200       68
O       -7.42784452      -1.34675002       0.44731304      -1.00766500       69
O       -5.52036762      -1.96183312       3.96908784      -0.89217600       70
O       -7.40645790      -3.28391099       2.44878745      -1.00228400       71
Ti      -3.91952133      -0.73797768      -1.58298564       1.98798200       34
O       -3.79817748      -0.24455130      -3.46770954      -1.02251100       72
O       -3.98530340      -1.17252076       0.47138250      -0.99671400       73
O       -7.63295555      -2.96664476      -1.46605253      -1.11859400       74
Ti      -7.68063927      -4.23055029      -2.99764132       1.85009100       35
O       -7.24744654      -5.73253155      -2.29774761      -0.94301000       75
Ti      -5.41741467      -3.23706770      -4.82894611       1.80727500       36
Ti      -8.26575661      -6.63399744      -0.91826522       1.69557300       37
O       -5.32414293      -3.71454144      -2.99919343      -0.78458000       76
O       -6.96861315      -3.97768235      -4.84792614      -0.84543400       77
O       -7.71180439      -8.03836250      -0.53873312      -0.50328800       78
Ti      -7.69083071      -3.30810261       0.42209852       1.99059300       38
Ti      -5.63773108      -3.42089868       2.82788420       1.94102300       39
Ti      -5.10342789      -6.78526354       2.40472341       1.83719900       40
O       -6.71052027      -7.35482979       2.56091523      -0.86474400       79
O       -7.92175961      -5.34577131       0.60340232      -1.16042500       80
O       -5.54183626      -3.45699739       0.82716686      -0.98911500       81
O       -4.74214983      -6.64104748       0.56459552      -1.15968700       82
O       -5.28968859      -5.19854116       3.21712232      -0.91500200       83
Ti      -3.63577223      -4.27067757      -2.67088103       1.88004800       41
O       -3.47952056      -3.90432715      -4.70798540      -1.12020900       84
O       -3.55217218      -2.52630854      -1.55648410      -1.00870900       85
O       -3.71786427      -6.07308722      -2.42326188      -0.78954400       86
Ti      -3.80742097      -2.94446135       0.45817506       1.96311400       42
Ti      -3.43687940      -6.33770037      -0.58221042       1.81656500       43
O       -3.68395162      -3.20115137       2.41093612      -1.02501000       87
O       -3.22645259      -7.52728033       2.74813128      -1.05521200       88
O       -3.22447133      -4.63567019      -0.53618854      -0.98757200       89
Ti      -2.07229924       6.72434378      -2.18669057       1.86652800       44
Ti      -2.07617593       3.32358360      -2.90003729       1.94737200       45
O       -2.04755735       6.60945892      -0.25426236      -1.13966600       90
O       -2.01436353       5.19113445      -3.07093453      -0.89478600       91
O       -0.04280767       4.65209675       0.17997593      -1.01221200       92
Ti      -1.77903020       3.24067426       4.78387403       1.86623700       46
O       -0.08234736       3.74935818       5.40631866      -1.03391600       93
O       -1.59113765       3.97778082       3.00061989      -1.04817300       94
Ti       1.68595695       6.84266138      -2.28682137       1.86624700       47
Ti       1.88226962       3.33501291      -2.82555914       1.95586300       48
Ti      -0.11846098       6.45700216       0.20456019       1.82020700       49
Ti      -0.10103724       2.79718423      -0.71103662       1.97108000       50
O        1.76519406       6.83277702      -0.33350781      -1.14080000       95
O        1.73925304       5.19916296      -2.93991446      -0.89821500       96
O       -0.21992379       7.27740622      -2.06564403      -1.15025000       97
O       -0.07920089       3.10689831      -2.55569768      -1.00986100       98
Ti      -0.02549205       4.22405005       2.09522724       1.92358400       51
Ti       1.64225900       3.29509258       4.86147833       1.87010900       52
O       -0.04946705       6.36570120       1.87986994      -0.72692000       99
O       -0.01162595       2.49923205       1.41794395      -1.01383600      100
O        1.51842654       4.01554060       3.07196712      -1.07250100      101
O       -1.96928155       3.15337515      -1.04186392      -1.00132000      102
O        1.79828382       2.94892144      -1.00831306      -0.97843300      103
O       -1.93319309       1.78805125      -4.06830931      -0.89088900      104
O       -0.22329253       1.03471756      -0.52206951      -0.98648200      105
O       -1.84597647       1.57165909       4.82988071      -0.85793300      106
Ti       0.04961053       0.58596665       1.56721711       2.00967700       53
Ti      -1.91701090      -0.15921606       3.73257256       1.94210900       54
O       -0.00128310       0.24816495       3.41269803      -1.01997700      107
O       -1.85448909       0.09208331       1.87525129      -0.97911100      108
O        1.86077201       1.87673044      -4.07954741      -0.88744500      109
O        1.79420102       1.62371862       4.92131853      -0.86577200      110
Ti       1.98545372      -0.05280884       3.78929496       1.94117700       55
O        1.89723849       0.38396332       1.96572292      -0.96982800      111
Ti      -1.98554993       0.05299015      -3.78943849       1.94106300       56
O       -1.89726686      -0.38394159      -1.96586859      -0.96986900      112
O       -1.79430759      -1.62374032      -4.92121124      -0.86548200      113
O        0.22318940      -1.03461373       0.52185625      -0.98644300      114
O       -1.86058593      -1.87655878       4.07946253      -0.88752500      115
Ti       1.91699147       0.15938811      -3.73253250       1.94220500       57
Ti      -0.04957066      -0.58576173      -1.56745064       2.00973400       58
O        1.85443556      -0.09220232      -1.87542677      -0.97906700      116
O        0.00120650      -0.24776591      -3.41294217      -1.02004600      117
O        1.84602177      -1.57167351      -4.82956982      -0.85816300      118
O        1.93298376      -1.78782952       4.06825256      -0.89101500      119
O       -1.79827166      -2.94868708       1.00825930      -0.97847200      120
O        1.96926439      -3.15334320       1.04178107      -1.00126600      121
Ti      -1.64236522      -3.29509926      -4.86152124       1.87018100       59
O       -1.51849174      -4.01577759      -3.07204103      -1.07098000      122
O        0.08236457      -3.74925780      -5.40633392      -1.03409500      123
O        0.01171165      -2.49913597      -1.41821182      -1.01395900      124
O        0.04951247      -6.36601162      -1.87960875      -0.72687200      125
Ti       0.10108337      -2.79704022       0.71089160       1.97106500       60
Ti       0.11840949      -6.45693779      -0.20443602       1.82015600       61
Ti      -1.88225698      -3.33481979       2.82545280       1.95588100       62
Ti      -1.68596232      -6.84259844       2.28700113       1.86619500       63
O        0.07922874      -3.10683894       2.55560279      -1.00979700      126
O        0.21980909      -7.27751303       2.06598473      -1.15033200      127
O        0.04271181      -4.65192413      -0.18015167      -1.01214800      128
O       -1.76523829      -6.83276176       0.33366647      -1.14087400      129
O       -1.73915887      -5.19904709       2.93973660      -0.89840100      130
Ti       1.77895963      -3.24067450      -4.78377438       1.86653300       64
Ti       0.02546536      -4.22389984      -2.09525323       1.92355800       65
O        1.59122181      -3.97798657      -3.00059199      -1.04924300      131
Ti       2.07601976      -3.32345176       2.90003085       1.94746600       66
Ti       2.07211494      -6.72422361       2.18691492       1.86658900       67
O        2.04750896      -6.60937500       0.25446776      -1.13960500      132
O        2.01423144      -5.19095516       3.07109904      -0.89485400      133
Ti       3.43692899       6.33776379       0.58241653       1.81717000       68
Ti       3.80736089       2.94450402      -0.45824933       1.96300900       69
O        3.22643518       7.52733135      -2.74768758      -1.05539900      134
O        3.68400836       3.20117331      -2.41095901      -1.02528500      135
O        3.22476554       4.63579464       0.53598523      -0.98753700      136
Ti       3.63588572       4.27061176       2.67114878       1.87868400       70
O        3.47951841       3.90438008       4.70778894      -1.11831300      137
O        3.71772718       6.07295179       2.42352057      -0.78881100      138
O        3.55219841       2.52635765       1.55639434      -1.00917000      139
Ti       5.10367918       6.78559256      -2.40434837       1.83682000       71
Ti       5.63788986       3.42111516      -2.82760549       1.94069100       72
Ti       7.69126844       3.30759144      -0.42240956       1.99189000       73
O        4.74212933       6.64177942      -0.56423312      -1.15925800      140
O        5.54196358       3.45678949      -0.82719606      -0.98878400      141
O        5.28972816       5.19872236      -3.21657920      -0.91504000      142
O        6.71068144       7.35500526      -2.56084371      -0.86498700      143
O        7.92214584       5.34579372      -0.60349625      -1.15961200      144
Ti       8.26598740       6.63390112       0.91817641       1.69706500       74
Ti       5.41754580       3.23687124       4.82907486       1.80943200       75
O        6.96870232       3.97722054       4.84802008      -0.85055300      145
O        7.71198654       8.03813553       0.53828216      -0.50728500      146
O        5.32430553       3.71445274       2.99928665      -0.77830000      147
O        7.24746513       5.73247337       2.29761744      -0.94731100      148
Ti       7.68051767       4.23050070       2.99745536       1.85476800       76
O        7.63289690       2.96664143       1.46591592      -1.11343600      149
O        3.98506999       1.17248714      -0.47143888      -0.99683300      150
Ti       3.91958332       0.73803061       1.58286226       1.98807000       77
O        3.79815412       0.24467744       3.46765566      -1.02262300      151
O        7.40667486       3.28382421      -2.44883370      -1.00175300      152
O        5.52064943       1.96179867      -3.96888924      -0.89201500      153
O        7.42852449       1.34659553      -0.44732288      -1.00815700      154
Ti       7.87686777       0.89291078       1.51405382       1.93156100       78
Ti       5.88039923       0.03227329       3.80299950       1.92826300       79
O        7.68610859       0.26131693       3.40377116      -1.03178100      155
O        5.70133352       0.61820096       1.98211241      -0.98418900      156
O        5.61510658       1.50481725       5.01234198      -0.90968200      157
Ti       3.80829310      -0.52854472      -1.51355910       2.00027200       80
O        3.75184536      -0.13478768      -3.38568902      -1.02227400      158
O        3.70340872      -0.95507389       0.51173449      -1.00627700      159
Ti       5.80096436       0.17891045      -3.70275521       1.93187500       81
Ti       7.69634533      -0.27207321      -1.30145252       1.94459800       82
O        5.67185116      -0.46015859      -1.88581765      -0.99611700      160
O        5.69603014      -1.33296180      -4.86172438      -0.91615000      161
O        7.55264187       0.21366435      -3.29300880      -1.02149500      162
O        7.69386435      -0.86129254       0.51617861      -1.02116800      163
O        5.76065159      -1.72376418       4.01990843      -0.89023500      164
O        7.64189339      -2.97414804       2.45548391      -0.96861800      165
O        7.92849970      -2.45942831      -1.52082157      -1.08435900      166
Ti       3.76493287      -4.02972794      -2.49691010       1.87842600       83
O        3.63840556      -3.74483895      -4.56768942      -1.13911800      167
O        3.46546841      -2.35847473      -1.50936985      -1.01990800      168
O        3.76309633      -6.03091192      -2.31710625      -0.80977600      169
Ti       3.89872289      -2.71972632       0.57223797       1.96781300       84
Ti       3.80076075      -6.23790121      -0.60457242       1.82388600       85
O        3.83662724      -3.06180644       2.51203394      -0.99508300      170
O        3.76192212      -7.29107475       2.27388740      -1.05707500      171
O        3.85042048      -4.50114059      -0.42472139      -0.99448500      172
Ti       5.59266567      -3.07511330      -4.65125847       1.80004700       86
Ti       7.30907154      -5.92398930      -0.74659318       1.81283600       87
O        5.38609695      -3.56642008      -2.80293560      -0.76914300      173
O        7.16421080      -3.71246743      -4.72032309      -0.83465800      174
O        8.64903545      -6.75380707       0.12820314      -0.89626200      175
Ti       7.84990025      -2.76665044       0.31749490       1.98032000       88
Ti       5.95710659      -3.17095280       2.77954626       1.93856700       89
Ti       5.64272833      -6.63975954       2.05872464       1.82531000       90
O        7.10853243      -7.42433405       2.39027667      -0.86636200      176
O        7.24252558      -4.57019091       0.30062148      -0.91360800      177
O        5.68968916      -2.69226956       0.94376051      -0.90490200      178
O        5.51530981      -6.66734934       0.04239820      -1.15032400      179
O        5.67806339      -5.04942703       2.83791876      -0.92362800      180
O        7.68593740      -5.16991234      -2.28616142      -0.92904500      181
Ti       8.43372345      -3.57119894      -3.12299800       1.90464000       91
Ti       8.39262581       6.30220890      -2.20204949       1.82726600       92
O        9.38675213       3.03478551      -0.93048620      -0.95649700      182
O        8.93322468       5.15341187      -3.39400959      -0.90020800      183
Ti      11.63252354       6.44167376      -1.12402213       1.83614900       93
Ti      12.99642563       3.92751813      -2.65403867       1.81546300       94
Ti      11.77543163       7.46846914       1.85724080       1.62484000       95
Ti      11.45933914       2.96766567      -0.46026319       1.88361300       96
O        9.86004257       7.05207062      -1.63744724      -0.88136200      184
O       11.83753204       8.74876118       2.72881985      -0.52457000      185
O       13.22323799       3.33246613      -1.00671935      -0.80166600      186
O       12.75409412       5.82865524      -2.37004328      -0.97233500      187
O       12.33538532       7.56426907       0.00316960      -0.89727700      188
O       11.21803856       3.50980806      -2.53079557      -1.05704900      189
O       11.19581795       4.97162437      -0.01045244      -1.13410200      190
Ti      10.93429565       4.73578215       1.93330288       1.77414500       97
O        9.42525673       4.29003239       3.03861141      -0.81562300      191
O       10.04398251       6.61709738       1.60855937      -0.83989400      192
O       11.44378090       2.83901596       1.40882206      -0.97488300      193
O       12.16629887       5.62917805       2.64224076      -0.80096900      194
O        9.65614223       0.25708464       5.42155313      -0.58636200      195
Ti       9.36594677       3.27936745      -2.98671508       1.87965300       98
O        9.41884995       2.02116680      -4.05738115      -0.80124000      196
Ti       9.59748077      -0.27280700       3.97651815       1.78346700       99
O        9.49987888       0.82907659       1.80422258      -0.88005000      197
O       13.60472298       2.65240955      -3.72545695      -0.99057500      198
O       11.56905937       1.18177772      -0.54597950      -1.03951100      199
Ti      11.75721931       0.73990101       1.52639520       1.87646100      100
Ti      13.33123302      -0.50673079       3.64631915       1.69080400      101
O       11.42550564      -0.09519393       3.27033281      -1.12158300      200
O       13.37509346       0.63040251       1.96478570      -0.75422100      201
O       13.88208961       0.24342884       4.87783575      -0.49833800      202
Ti       9.53733635      -0.14106661      -3.62013364       1.85375200      102
O        9.47222519      -0.22931080      -1.72801340      -0.89009400      203
O        9.56784153      -2.23921847       4.03853416      -0.81858800      204
Ti       9.62809372      -3.42205811       2.79233623       1.90134400      103
Ti      13.27327538       0.74632925      -3.67157483       1.69407100      104
Ti      11.81086254      -0.56457543      -1.47644699       1.87978100      105
O       13.40494061      -0.28817520      -1.93021107      -0.75057600      205
O       13.95408916       0.03238960      -4.85718107      -0.49262100      206
O       11.42092609       0.07178357      -3.36448336      -1.11086000      207
O       11.58722115      -0.97574294       0.54707551      -1.03854600      208
O       13.83412457      -2.37399340       3.64361763      -0.98655500      209
O        9.16738605      -1.70273662      -4.04795456      -0.76956000      210
Ti       9.05577183      -6.76080704       1.92261970       1.82187500      106
O        9.57848358      -2.97435951       0.84192544      -0.98873300      211
O        9.13960743      -5.24649906       2.84106207      -0.93222100      212
Ti      11.48074436      -4.85795355      -1.97433078       1.76769400      107
O       13.09549713      -5.21187735      -2.43515706      -0.79414100      213
O        9.97152042      -4.12576914      -3.15570307      -0.74528400      214
O       11.58035183      -2.58830905      -1.41051102      -0.99097200      215
O       11.08478737      -6.56928253      -2.06114745      -0.83543500      216
Ti      11.62400913      -2.82808781       0.36849061       1.87924700      108
Ti      12.93788624      -7.14505053      -1.96616447       1.62395700      109
Ti      13.30834579      -3.65364504       2.54387283       1.81323100      110
Ti      12.24329853      -6.31784773       1.09592426       1.83706600      111
O       11.46614933      -3.47058320       2.46964622      -1.06110400      217
O       13.11262989      -7.30265427      -0.00834035      -0.90205400      218
O       11.57157707      -4.88339996       0.00128078      -1.13503900      219
O       13.42165947      -2.99324584       0.90945244      -0.80416200      220
O       10.71646309      -7.25216913       1.88999462      -0.89745800      221
O       13.39574909      -8.24356365      -2.97028232      -0.52742100      222
O       13.33007908      -5.54278183       2.29649234      -0.96319300      223
