246
Properties=species:S:1:pos:R:3:initial_charges:R:1:tags:I:1 pbc="F F F"
Ti       7.28917122      -5.78448153       2.30634809       1.80736600        0
Ti       9.08295059      -3.45988250       2.52279258       1.82630800        1
Ti       5.48374271      -3.20437670       3.27714610       1.87158900        2
Ti       9.13452435      -1.38085759       0.08536111       1.81357500        3
Ti       5.56504536      -1.69769406      -0.17614602       2.03354300        4
Ti       6.75660133      -6.73380280      -0.25696254       1.77683800        5
O        7.50955391      -7.32856035       1.34975207      -0.85658600        0
O        7.35851669      -5.92523956      -1.78541267      -0.93002400        1
O        9.80206108      -2.83669329       0.88655752      -0.95353900        2
O        5.28666544      -2.02964544       1.94294143      -0.94004500        3
O        6.62899208      -5.20082235       0.67088783      -0.79781400        4
O        9.06902027      -5.29247522       2.69827151      -0.89230500        5
O        5.53197813      -5.60818100       3.14540052      -1.07465100        6
O        5.52377892      -3.46357322      -1.13392079      -1.07474300        7
O        7.28787279      -3.61921167       2.76013398      -1.04347400        8
O        7.52871943      -1.69200814       0.30499691      -0.81431200        9
O        5.09136105      -7.41603947      -0.57861239      -0.90608200       10
Ti       6.49942636      -4.47577047      -2.50911283       1.84990000        6
Ti       3.73232794      -5.73545647       2.56621289       1.91362600        7
Ti       3.59531927      -3.92257142      -0.80027050       1.93854200        8
Ti       3.43754983      -6.85917425      -0.08671895       1.87353900        9
O        3.54729223      -7.31409359       1.74007392      -0.81270800       11
O        3.69338298      -5.07507896       0.78761643      -1.02867900       12
O        3.69448423      -3.84475803       3.46944308      -1.11360300       13
O        3.71961880      -1.90412414      -0.14621623      -1.00383600       14
O        3.39875650      -5.43217039      -1.68171191      -0.92368000       15
Ti       7.56506300      -1.77735627      -4.46899176       1.71228900       10
Ti       9.09482670       0.41615590      -3.23934770       1.78159100       11
Ti       5.44475460       0.18596235      -3.18717170       1.98149600       12
O        7.65362167      -2.01645875      -5.98331213      -0.48554300       16
O        9.26583290       0.11058526      -1.31408691      -1.16687700       17
O        5.83412218      -0.70901585      -1.51257360      -0.99293800       18
O        9.47114182       2.24716091      -3.70302653      -0.95679900       19
O        5.37094641       1.82305300      -4.26467323      -0.77921800       20
O        7.53147125      -3.36438513      -3.30349684      -0.91465800       21
O        9.52692318      -1.00251055      -4.01581669      -0.76025100       22
O        5.45415115      -1.45007384      -4.21692085      -1.03836300       23
O        7.37372637       0.12971176      -3.62573290      -1.08421600       24
O        5.19885683      -5.13866711      -3.66133022      -0.92321800       25
Ti       3.58358264      -1.99036825      -4.20909500       1.91522700       13
Ti       3.43707776      -4.77002335      -3.79755569       1.87810500       14
O        3.52772403      -3.48398471      -5.17630339      -0.77922000       26
O        3.34142089      -3.15169764      -2.78951693      -0.95499900       27
O        3.63936377      -0.07023780      -3.23158669      -1.06295300       28
Ti       0.02570747      -5.77828455       2.53086805       1.90842600       15
Ti       1.84331024      -3.35615849       3.47472835       1.90764200       16
Ti       1.88455558      -1.40427840       0.18169326       2.00647600       17
Ti       0.05102017      -6.90850019      -0.11128083       1.88725900       18
O        0.03937353      -7.36637878       1.75603354      -0.79261100       29
O        0.06761968      -5.45484829      -1.72610044      -0.96250500       30
O        1.84195125      -2.18267703       2.14399576      -0.97037400       31
O        0.02707984      -5.16490269       0.76689696      -1.01388800       32
O        1.85086131      -5.48995113       3.09208226      -1.07966200       33
O        1.83127010      -3.41594911      -0.44868571      -1.03309200       34
O        1.76771867      -7.46730232      -0.51364470      -0.90606600       35
Ti       0.06175517      -3.88181806      -0.85277575       1.99225200       19
Ti      -1.81689012      -3.36881661       3.42170286       1.90612400       20
Ti      -1.77255762      -1.45879900       0.14768180       2.00631600       21
O       -1.74570715      -2.18268561       2.10373616      -0.97497000       36
O       -1.83219528      -5.51139879       3.10176563      -1.07408900       37
O       -1.72651422      -3.45416117      -0.50385946      -1.03301900       38
O        0.00629212      -3.87663102       3.52404737      -1.10657400       39
O        0.03448296      -1.79952633      -0.05319986      -0.98838600       40
O       -1.59685814      -7.48859787      -0.55600679      -0.90633500       41
Ti       1.82981527       0.54833376      -3.26940942       1.95324000       22
Ti       0.05482298      -4.87474203      -3.71838355       1.88991000       23
O        0.04191836      -3.42064643      -5.12667465      -0.74883500       42
O        1.87593651      -0.11111782      -1.17685556      -0.96323900       43
O        1.95079482       1.93492162      -4.48162937      -0.77605800       44
O        0.07036716      -3.16561222      -2.71518898      -1.02291400       45
O        1.82265091      -1.26646650      -4.40976906      -1.05297500       46
O        1.71135485      -5.49642229      -4.07859278      -0.94132500       47
Ti       0.03887965      -1.99835491      -4.19947577       1.89206000       24
Ti      -1.75419259       0.52092552      -3.33423615       1.95446000       25
O       -1.86998069      -0.16255905      -1.22803497      -0.96567900       48
O       -1.76533496       1.87492168      -4.54613018      -0.77621200       49
O       -1.73442698      -1.26522326      -4.34741116      -1.06032900       50
O        0.06315457       0.07933863      -3.26797462      -1.04733200       51
O       -1.60101080      -5.48089218      -4.12235069      -0.93475700       52
O       -3.28466272      -5.48614168      -1.76068187      -0.93214100       53
Ti      -3.66752696      -5.77044630       2.49705815       1.91487000       26
Ti      -3.47831750      -3.98292494      -0.88685787       1.94192100       27
Ti      -3.33399987      -6.91803122      -0.14256476       1.87543400       28
O       -3.43284798      -7.36464262       1.66273761      -0.81174400       54
O       -3.61613560      -5.15220165       0.69490588      -1.02664600       55
O       -3.68049598      -3.82530212       3.18912220      -1.11374300       56
O       -3.64943290      -2.03732300      -0.09609628      -0.99639800       57
Ti      -7.21410179      -5.85643911       2.25307035       1.80906900       29
Ti      -6.40855932      -4.52391195      -2.60140538       1.85044600       30
Ti      -5.46043730      -3.19674683       3.08644152       1.86382600       31
Ti      -9.07869053      -3.58523226       2.57901049       1.82016800       32
Ti      -5.45814657      -1.80034602      -0.20148748       2.03061900       33
Ti      -6.64029980      -6.75839901      -0.32296899       1.77690100       34
O       -7.42467690      -7.37334490       1.25967920      -0.85533400       58
O       -7.23906565      -5.98213100      -1.86137247      -0.92652700       59
O       -5.45077372      -1.88227046       1.79701316      -0.95892000       60
O       -9.70592976      -2.96636415       0.93873751      -0.95060000       61
O       -6.51572132      -5.24272060       0.60563958      -0.79977500       62
O       -5.46485138      -5.67932272       3.08472562      -1.07299500       63
O       -8.96496582      -5.43393087       2.74637341      -0.88683400       64
O       -5.41708708      -3.45617294      -1.27152443      -1.07841900       65
O       -7.27240610      -3.66495895       2.65614700      -1.04109800       66
O       -7.51089621      -1.86622024      -0.20305404      -0.81396000       67
O       -4.96976519      -7.46615887      -0.64211029      -0.90535700       68
Ti      -9.10482597      -1.53828275       0.01691317       1.80565500       35
Ti      -3.58088851      -1.95158434      -4.13584757       1.91074000       36
Ti      -3.32811928      -4.74926329      -3.88292289       1.87985200       37
O       -3.48705292      -3.40317535      -5.18591642      -0.77893300       69
O       -3.21484685      -3.17085552      -2.80031300      -0.95343800       70
O       -3.60199857       0.03770671      -3.36014819      -1.05251000       71
Ti      -7.40156126      -1.78273118      -4.40245771       1.70986300       38
Ti      -5.38728523       0.38200602      -3.05181551       1.98512300       39
Ti      -9.08611679       0.30203635      -3.19731545       1.76750500       40
O       -7.32860184      -1.87403619      -5.93648243      -0.47284500       72
O       -5.47498703      -0.27260858      -1.07727623      -0.99214900       73
O       -9.50091267      -0.05391968      -1.31908512      -1.15242000       74
O       -5.52814436       1.83270919      -4.34501171      -0.77648200       75
O       -9.53843594       2.09254766      -3.64523101      -0.96530300       76
O       -7.48467588      -3.48088217      -3.40812612      -0.91250000       77
O       -5.39429379      -1.51315463      -3.92483830      -1.04151000       78
O       -9.39463615      -1.05604219      -4.11361217      -0.74734800       79
O       -7.29963541       0.03729228      -3.31904364      -1.09059900       80
O       -5.07665348      -5.15959549      -3.73809719      -0.92295000       81
Ti       9.11593437      -0.28150624       3.15280914       1.76901400       41
Ti       5.41094923      -0.38203129       3.05196071       1.98513700       42
Ti       7.42888403       1.79180455       4.36987400       1.70886700       43
O        7.49701691       3.50479293       3.40147805      -0.91071600       82
O        9.56959343      -2.08465195       3.57837725      -0.96514500       83
O        5.58339739      -1.83510971       4.34870625      -0.77667500       84
O        9.53526306       0.08313495       1.27671063      -1.15302700       85
O        5.46486712       0.26274085       1.07719445      -0.99097400       86
O        7.35864496       1.86746299       5.90512323      -0.47216600       87
O        5.07905960       5.17832232       3.74280834      -0.92336100       88
O        7.33174086      -0.02976798       3.29249382      -1.09042200       89
O        9.42762566       1.07451510       4.06917810      -0.74887000       90
O        5.42636919       1.52412593       3.88791847      -1.04172400       91
Ti       3.32989264       4.75249100       3.88667107       1.87859700       44
Ti       3.60694075       1.95857382       4.13374901       1.91102100       45
O        3.23057032       3.17747426       2.80424428      -0.95382600       92
O        3.51710844       3.39712381       5.19015789      -0.77822100       93
O        3.63888979      -0.05106522       3.40135121      -1.05235800       94
Ti       6.61185312       6.76864862       0.29153290       1.77769700       46
Ti       5.45529366       1.79884839       0.23291948       2.02989000       47
Ti       8.94143295       3.62867475      -2.68274260       1.82338200       48
Ti       5.40280676       3.04886556      -3.06803608       1.86659800       49
Ti       6.40669298       4.53954697       2.60293555       1.85061500       50
Ti       7.13418055       5.97604513      -2.32313848       1.80823200       51
O        6.45574856       5.28862143      -0.71702981      -0.79942900       95
O        9.56682968       3.00578403      -1.04938698      -0.95373100       96
O        5.49832296       1.80541348      -1.74657607      -0.95444000       97
O        7.23186970       5.97377348       1.79877532      -0.92541800       98
O        7.43219757       7.42215967      -1.25692916      -0.85212700       99
O        4.95819759       7.48590803       0.64491093      -0.90488300      100
O        7.51491642       1.87585700       0.27454636      -0.81188700      101
O        7.10707664       3.77463198      -2.83431697      -1.05230500      102
O        5.42400122       3.50003862       1.26910245      -1.08105300      103
O        8.88282967       5.46244431      -2.83006620      -0.88568600      104
O        5.36963034       6.08543873      -3.09894347      -1.07153300      105
Ti       9.08911514       1.57506800      -0.05146003       1.80734400       52
Ti       3.29292965       6.96818686       0.18379830       1.87495400       53
Ti       3.48638749       4.02602530       0.88394296       1.94051800       54
Ti       3.66390347       5.87418699      -2.47959900       1.91464800       55
O        3.61550236       5.22161102      -0.66616172      -1.02739900      106
O        3.28693032       7.43900967      -1.57578266      -0.81027800      107
O        3.66140532       2.06322122       0.12100587      -0.99782800      108
O        3.74725628       3.90614986      -3.13349819      -1.11427400      109
O        3.26008010       5.50117016       1.79541278      -0.92965400      110
Ti       1.78517520      -0.52730989       3.36954188       1.95418000       56
Ti      -0.02626131       1.98152125       4.19862270       1.89240800       57
O       -0.05008413       3.15793014       2.73190069      -1.02269100      111
O        1.80248833      -1.88303387       4.58109283      -0.77618900      112
O        1.91075397       0.15728983       1.26835012      -0.96556300      113
O       -0.05020040       3.39430141       5.14598942      -0.74919800      114
O        1.59344947       5.45897245       4.15023947      -0.93375400      115
O        1.76264572       1.26961756       4.35035992      -1.05995600      116
Ti      -0.06420242       4.85157251       3.75003743       1.88891700       58
Ti      -1.80395138      -0.54160392       3.31837654       1.95361700       59
O       -1.87598383      -1.91607356       4.53242493      -0.77422500      117
O       -1.87976623       0.11794554       1.22551668      -0.96526300      118
O       -1.73684311       5.45065975       4.10026312      -0.93936700      119
O       -0.02421558      -0.08826603       3.29390883      -1.04774600      120
O       -1.82030225       1.25099146       4.37237310      -1.04908700      121
Ti       1.78930140       1.45822692      -0.10056599       2.00550100       60
Ti       1.85739589       3.39142847      -3.38000107       1.90517800       61
Ti      -0.00079580       5.80212402      -2.50488114       1.90788000       62
O       -0.00932591       5.16995096      -0.73829627      -1.01370500      122
O        1.81382346       2.18156695      -2.06956029      -0.97455800      123
O       -0.09154404       5.44868612       1.75490832      -0.96228600      124
O       -0.04563013       7.37109852      -1.72106373      -0.79209500      125
O        1.52934945       7.51180315       0.64442718      -0.90462500      126
O        1.73826599       3.47276926       0.51250637      -1.03283000      127
O        1.83806121       5.54372072      -3.11150646      -1.07330100      128
Ti      -0.06912327       6.90554094       0.16249852       1.88618300       63
Ti      -1.86548209       1.39743674      -0.14364021       2.00567100       64
Ti      -1.80674040       3.34811044      -3.43794155       1.90706500       65
Ti      -0.05243474       3.88821125       0.86205727       1.99181600       66
O       -1.80770898       2.17071557      -2.11182332      -0.97029100      129
O       -1.80165637       7.46604300       0.55135381      -0.90448100      130
O       -0.01099443       1.79595745       0.09434458      -0.98869600      131
O        0.04172965       3.85135031      -3.46412516      -1.10508400      132
O       -1.82226479       3.40453339       0.47080937      -1.03243100      133
O       -1.81616139       5.48381519      -3.08756018      -1.07941600      134
Ti      -3.45502353       4.72042942       3.80561280       1.87915100       67
Ti      -3.62770009       1.93921995       4.19230604       1.91934600       68
O       -3.36550021       3.11060691       2.78400850      -0.95483300      135
O       -3.56174183       3.41862154       5.17433929      -0.78013200      136
O       -3.66454124      -0.04764905       3.32644963      -1.06473300      137
Ti      -5.45576477      -0.31955314       3.18652391       1.93375600       69
Ti      -9.11754036      -0.40350914       3.20077610       1.75639000       70
Ti      -7.54389524       1.74458599       4.44574165       1.67326000       71
O       -7.53698587       3.33506918       3.27918553      -0.93327200      138
O       -5.49387836      -1.98429394       4.28156424      -0.71386900      139
O       -9.59010410      -2.21613741       3.62239671      -0.93021500      140
O       -5.77211571       0.61470670       1.50299919      -1.01188300      141
O       -9.30156326      -0.08197460       1.27933645      -1.18317300      142
O       -7.63703823       1.98172176       5.96097326      -0.44923400      143
O       -5.21382380       5.09883022       3.66433001      -0.92250500      144
O       -7.38448429      -0.16659120       3.59777927      -0.96700800      145
O       -5.46840811       1.40005338       4.18612862      -1.08285100      146
O       -9.52566433       1.00979459       3.98991799      -0.79012100      147
O       -3.42050099       5.40500927       1.69073236      -0.92506200      148
Ti      -3.44346857       6.83597851       0.11542203       1.87303100       72
Ti      -3.60126495       3.89814019       0.79552972       1.93955000       73
Ti      -3.69757104       5.73690128      -2.55809855       1.91401900       74
O       -3.67251492       5.05812788      -0.78150952      -1.02867900      149
O       -3.53831363       7.29951906      -1.72884655      -0.81268100      150
O       -3.70385003       1.88448656       0.14131427      -1.00324400      151
O       -3.65468359       3.82442522      -3.44020987      -1.11312200      152
Ti      -6.75587511       6.71811390       0.25020784       1.77635800       75
Ti      -5.54559088       1.63907623       0.18307190       2.02836100       76
Ti      -9.13123512       1.41028357      -0.11208285       1.81017700       77
Ti      -5.44716263       3.20238352      -3.26618052       1.87007200       78
Ti      -9.05933762       3.47785807      -2.58950782       1.82631500       79
Ti      -7.25395107       5.78902149      -2.32932663       1.80749700       80
O       -6.60746527       5.19527578      -0.68702227      -0.79839900      153
O       -5.28175926       2.01789141      -1.93436420      -0.93789900      154
O       -9.76793861       2.85949135      -0.95455766      -0.95147700      155
O       -7.36047649       5.89645386       1.76755393      -0.92812000      156
O       -7.48784637       7.32166672      -1.37193096      -0.85534900      157
O       -5.09925222       7.40556526       0.58872592      -0.90563700      158
O       -7.51631165       1.69841397      -0.25004336      -0.82134700      159
O       -7.26417971       3.60957670      -2.78195786      -1.04240700      160
O       -5.52048302       3.42061067       1.12855983      -1.07898200      161
O       -5.49472427       5.59292984      -3.15597630      -1.07404600      162
O       -9.02760601       5.30910635      -2.76213908      -0.89230900      163
Ti      -6.50205994       4.44312429       2.49233747       1.85297500       81
