180
Properties=species:S:1:pos:R:3:initial_charges:R:1:tags:I:1 pbc="F F F"
Ti      -1.25079167      -3.90507793      -5.62844849       1.90002600        0
Ti       1.87843037      -2.87134099      -4.34949493       1.92657400        1
Ti      -0.87787390      -6.30064249      -3.01476836       1.93911200        2
Ti       2.54161119      -4.84492874      -2.33619499       1.94011500        3
O       -1.74318802      -4.65126467      -3.79440641      -0.98855000        0
O        1.69614148      -3.24284554      -2.39983368      -0.91437700        1
O        0.63826168      -3.44050217      -5.41917181      -0.91226900        2
O       -1.38780069      -5.01550674      -6.68333960      -0.89047100        3
O        2.85504699      -4.67439985      -3.98679996      -0.83713200        4
O       -0.92144299      -7.55666733      -3.92383599      -0.98313800        5
O        0.88650590      -5.92148638      -2.23330593      -0.98348900        6
Ti       4.54959869      -0.76810271      -3.85635948       1.91208600        4
Ti       7.06733894       1.14221990      -3.46736717       1.86944500        5
Ti       5.26674318      -2.89025187      -1.17159641       1.91950300        6
Ti       7.12807751      -0.81402457      -1.47596765       1.87730600        7
O        4.75306845      -1.28574741      -0.51836413      -0.92245300        7
O        7.17534399      -0.30057961       0.35198462      -1.01889600        8
O        3.36492658      -1.83666372      -4.75577641      -1.01679100        9
O        5.80108929       0.37950677      -4.55702448      -0.87195400       10
O        7.06084251      -2.60894489      -0.73281091      -1.09335700       11
O        5.65536213      -1.79174542      -2.77391529      -0.98194300       12
O        8.24561691      -0.24473174      -2.69169593      -0.90497600       13
O        4.18780327      -4.36707878      -1.39708662      -1.03603300       14
O        6.28720999       0.96404707      -1.79127419      -0.91858700       15
O        8.18426991       2.36312509       0.00530011      -0.86308900       16
Ti      -2.96040916      -1.11372793      -4.92725992       1.92616400        8
Ti      -0.08327387       0.42281079      -3.76668620       1.94238600        9
Ti      -2.71290445      -3.65852547      -2.53311229       1.86863000       10
Ti       0.44627792      -1.78669858      -1.77000999       1.98067200       11
O       -3.25890732      -1.99723411      -3.20963168      -1.01911400       17
O       -0.19105902       0.00313400      -1.91844642      -1.00409200       18
O       -1.48317397      -0.22538465      -4.94559813      -0.87889000       19
O       -2.61750841      -2.53643298      -5.86771393      -1.03822400       20
O        0.71987188      -1.39212465      -3.65385914      -1.03883000       21
O       -4.39333487      -4.39063978      -2.39348578      -0.85392000       22
O       -1.03513443      -2.90944886      -1.73589540      -0.98510600       23
Ti      -4.61830854      -1.02105784      -2.08891249       1.91707000       12
Ti      -1.60371733       1.29363203      -1.23922634       1.98975300       13
O       -4.54513168       0.00988203      -4.70021963      -1.09482500       24
O       -1.44439614       1.75051284      -3.11839533      -1.03741600       25
O       -6.15231752      -1.74640048      -2.13890815      -0.83287300       26
O       -2.71801233      -0.05136853      -1.22046649      -1.01077900       27
Ti       2.61786914       2.23898292      -2.90030766       1.96638800       14
Ti       5.76882887       3.80370212      -2.48614812       1.85186600       15
Ti       3.39047289       0.11306623      -0.69976157       2.00455200       16
Ti       6.76541328       1.77858460       0.16675174       1.93225900       17
O        2.43650246       1.77203357      -1.12620175      -0.98356700       28
O        5.76737690       3.62226295      -0.50506932      -1.03707400       29
O        1.29244053       1.42180145      -4.10720587      -0.94013700       30
O        4.12045956       3.00564480      -3.20448709      -0.91875300       31
O        3.57236624       0.23901694      -2.72031593      -1.01801500       32
O        7.17476511       2.85385990      -3.49527073      -0.98996500       33
O        2.04374123      -1.14493787      -0.79212564      -0.98658100       34
O        4.57221508       1.29971385       0.33689287      -0.96370400       35
Ti       1.26306772       3.26455045      -0.38706422       2.01732600       18
Ti       4.63304520       4.63181019       0.57084829       1.85798000       19
O        1.53770661       3.73576212      -2.27639341      -0.98805700       36
O        5.75736523       5.31387329      -2.79976344      -0.91839300       37
O       -0.05646304       2.06599331      -0.25209543      -1.00569500       38
O        2.91252947       3.94633412       0.53389996      -0.97530000       39
Ti      -5.13702726       1.54429555      -3.93212771       1.86632500       20
Ti      -2.39805436       3.46048284      -3.02390647       1.94492900       21
Ti      -4.05247784       6.89554691      -2.90874457       1.72681900       22
Ti      -6.35140514       1.91758525      -1.27981400       1.90565200       23
Ti      -4.02796412       4.96395302      -0.73530519       1.91808000       24
O       -4.96182966       0.88882506      -2.19870353      -0.97014000       40
O       -2.55525470       3.06160259      -1.31183720      -1.00932400       41
O       -4.76938963       6.45709753      -1.05430543      -0.86482500       42
O       -3.95093489       2.73816514      -4.09700537      -0.90701300       43
O       -5.17475462       6.97989130      -3.96601343      -0.75892600       44
O       -6.81623459       2.20863342      -2.90548420      -0.86385300       45
O       -3.45497990       5.07988596      -2.57970977      -1.03406600       46
O       -5.31532288       3.50197077      -0.80425483      -0.98285700       47
Ti       0.41066349       5.43570709      -2.54897881       1.97585300       25
Ti      -0.81880003       7.96645308      -3.00090146       1.80406000       26
Ti       2.66177869       7.08184195      -0.11921339       1.85229800       27
Ti      -0.76967973       6.24875498       0.32035902       1.96716200       28
Ti       0.43415266       9.40636444      -0.34878522       1.81242200       29
O        0.13256460       4.80388689      -0.41326395      -1.00689600       48
O       -0.50505465       8.23653889       0.47868371      -0.91670700       49
O        4.38380480       6.31294441       0.15022242      -0.93155500       50
O       -0.14465110       9.43975735      -2.03433347      -0.95812500       51
O       -0.90292621       4.44362545      -3.31846213      -0.88309100       52
O       -2.50666952       7.98521662      -3.41243410      -0.98810200       53
O        1.98627436       6.42479706      -1.48703277      -0.93011200       54
O        0.37968767       6.77766371      -3.80040836      -0.76202400       55
O       -0.79963505       6.72852850      -1.67308044      -0.99576700       56
O        2.10710382       8.93562603      -0.21606587      -0.84734000       57
O       -2.44295430       5.73345423       0.27119341      -1.04859100       58
O        1.64936829       6.52263832       1.30398822      -0.99668200       59
Ti      -0.43415266      -9.40636444       0.34878522       1.81242200       30
Ti       0.76967973      -6.24875498      -0.32035902       1.96716200       31
Ti      -2.66177869      -7.08184195       0.11921339       1.85229800       32
Ti       0.81880003      -7.96645308       3.00090146       1.80406000       33
Ti      -0.41066349      -5.43570709       2.54897881       1.97585300       34
O       -2.10710382      -8.93562603       0.21606587      -0.84734000       60
O        0.79963505      -6.72852850       1.67308044      -0.99576700       61
O       -1.64936829      -6.52263832      -1.30398822      -0.99668200       62
O        2.44295430      -5.73345423      -0.27119341      -1.04859100       63
O        0.14465110      -9.43975735       2.03433347      -0.95812500       64
O       -4.38380480      -6.31294441      -0.15022242      -0.93155500       65
O        0.50505465      -8.23653889      -0.47868371      -0.91670700       66
O       -0.13256460      -4.80388689       0.41326395      -1.00689600       67
O       -0.37968767      -6.77766371       3.80040836      -0.76202400       68
O       -1.98627436      -6.42479706       1.48703277      -0.93011200       69
O        2.50666952      -7.98521662       3.41243410      -0.98810200       70
O        0.90292621      -4.44362545       3.31846213      -0.88309100       71
Ti       4.02796412      -4.96395302       0.73530519       1.91808000       35
Ti       6.35140514      -1.91758525       1.27981400       1.90565200       36
Ti       4.05247784      -6.89554691       2.90874457       1.72681900       37
Ti       2.39805436      -3.46048284       3.02390647       1.94492900       38
Ti       5.13702726      -1.54429555       3.93212771       1.86632500       39
O        3.45497990      -5.07988596       2.57970977      -1.03406600       72
O        6.81623459      -2.20863342       2.90548420      -0.86385300       73
O        5.31532288      -3.50197077       0.80425483      -0.98285700       74
O        4.76938963      -6.45709753       1.05430543      -0.86482500       75
O        2.55525470      -3.06160259       1.31183720      -1.00932400       76
O        4.96182966      -0.88882506       2.19870353      -0.97014000       77
O        5.17475462      -6.97989130       3.96601343      -0.75892600       78
O        3.95093489      -2.73816514       4.09700537      -0.90701300       79
Ti      -4.63304520      -4.63181019      -0.57084829       1.85798000       40
Ti      -1.26306772      -3.26455045       0.38706422       2.01732600       41
Ti      -5.76882887      -3.80370212       2.48614812       1.85186600       42
Ti      -2.61786914      -2.23898292       2.90030766       1.96638800       43
O       -5.75736523      -5.31387329       2.79976344      -0.91839300       80
O       -1.53770661      -3.73576212       2.27639341      -0.98805700       81
O       -2.91252947      -3.94633412      -0.53389996      -0.97530000       82
O        0.05646304      -2.06599331       0.25209543      -1.00569500       83
O       -5.76737690      -3.62226295       0.50506932      -1.03707400       84
O       -2.43650246      -1.77203357       1.12620175      -0.98356700       85
O       -4.12045956      -3.00564480       3.20448709      -0.91875300       86
O       -1.29244053      -1.42180145       4.10720587      -0.94013700       87
Ti      -6.76541328      -1.77858460      -0.16675174       1.93225900       44
Ti      -3.39047289      -0.11306623       0.69976157       2.00455200       45
O       -7.17476511      -2.85385990       3.49527073      -0.98996500       88
O       -3.57236624      -0.23901694       2.72031593      -1.01801500       89
O       -4.57221508      -1.29971385      -0.33689287      -0.96370400       90
O       -2.04374123       1.14493787       0.79212564      -0.98658100       91
Ti       1.60371733      -1.29363203       1.23922634       1.98975300       46
Ti       4.61830854       1.02105784       2.08891249       1.91707000       47
Ti       0.08327387      -0.42281079       3.76668620       1.94238600       48
Ti       2.96040916       1.11372793       4.92725992       1.92616400       49
O        1.44439614      -1.75051284       3.11839533      -1.03741600       92
O        4.54513168      -0.00988203       4.70021963      -1.09482500       93
O        2.71801233       0.05136853       1.22046649      -1.01077900       94
O        6.15231752       1.74640048       2.13890815      -0.83287300       95
O        0.19105902      -0.00313400       1.91844642      -1.00409200       96
O        3.25890732       1.99723411       3.20963168      -1.01911400       97
O        1.48317397       0.22538465       4.94559813      -0.87889000       98
Ti      -0.44627792       1.78669858       1.77000999       1.98067200       50
Ti       2.71290445       3.65852547       2.53311229       1.86863000       51
O       -0.71987188       1.39212465       3.65385914      -1.03883000       99
O        2.61750841       2.53643298       5.86771393      -1.03822400      100
O        1.03513443       2.90944886       1.73589540      -0.98510600      101
O        4.39333487       4.39063978       2.39348578      -0.85392000      102
O       -8.18426991      -2.36312509      -0.00530011      -0.86308900      103
Ti      -7.12807751       0.81402457       1.47596765       1.87730600       52
Ti      -5.26674318       2.89025187       1.17159641       1.91950300       53
Ti      -7.06733894      -1.14221990       3.46736717       1.86944500       54
Ti      -4.54959869       0.76810271       3.85635948       1.91208600       55
O       -7.06084251       2.60894489       0.73281091      -1.09335700      104
O       -8.24561691       0.24473174       2.69169593      -0.90497600      105
O       -5.65536213       1.79174542       2.77391529      -0.98194300      106
O       -6.28720999      -0.96404707       1.79127419      -0.91858700      107
O       -4.18780327       4.36707878       1.39708662      -1.03603300      108
O       -4.75306845       1.28574741       0.51836413      -0.92245300      109
O       -7.17534399       0.30057961      -0.35198462      -1.01889600      110
O       -5.80108929      -0.37950677       4.55702448      -0.87195400      111
O       -3.36492658       1.83666372       4.75577641      -1.01679100      112
Ti      -2.54161119       4.84492874       2.33619499       1.94011500       56
Ti       0.87787390       6.30064249       3.01476836       1.93911200       57
Ti      -1.87843037       2.87134099       4.34949493       1.92657400       58
Ti       1.25079167       3.90507793       5.62844849       1.90002600       59
O       -2.85504699       4.67439985       3.98679996      -0.83713200      113
O        1.38780069       5.01550674       6.68333960      -0.89047100      114
O       -0.88650590       5.92148638       2.23330593      -0.98348900      115
O        0.92144299       7.55666733       3.92383599      -0.98313800      116
O       -1.69614148       3.24284554       2.39983368      -0.91437700      117
O        1.74318802       4.65126467       3.79440641      -0.98855000      118
O       -0.63826168       3.44050217       5.41917181      -0.91226900      119
