246
Properties=species:S:1:pos:R:3:initial_charges:R:1:tags:I:1 pbc="F F F"
Ti      10.58054924       4.08771276      -1.34956193       1.77494800        0
Ti       7.11881924       7.46540403      -0.12002005       1.79021100        1
Ti      10.13322163       0.94485718      -1.36749744       1.70038000        2
Ti       7.56704140       3.14558339      -1.32758403       1.95630700        3
Ti       9.85005569       6.81335258       0.05381127       1.72789500        4
O       10.82686138       5.99686098      -1.19826913      -0.93973900        0
O        8.52777290       1.54907787      -0.65821654      -0.90700500        1
O        7.69819689       3.42755437       0.67571515      -1.14615300        2
O       11.12172127       2.30309916      -1.92527199      -0.96983900        3
O        8.17148209       5.92753983       0.04119907      -1.00268000        4
O        9.99309921       6.13082981       1.73268628      -0.86870800        5
O        8.73616219       8.30143261      -0.25136602      -0.87506100        6
O        8.85774326       3.95913744      -2.13875937      -0.77724300        7
O       10.20731068       3.81361055       0.19828282      -0.95527000        8
O        6.70734978       2.07962608      -2.72513533      -0.95326800        9
O        6.26722050       7.55802727       1.43324721      -0.93043500       10
Ti       5.68415213       5.94511700       2.20167255       1.83765500        5
O        6.05142736       4.20765924      -1.60015595      -1.04120700       11
Ti       8.76048088       4.71374989       1.81255388       1.87620900        6
Ti       5.97010422       2.81848502       1.35303187       1.86854100        7
Ti       8.72559357      -1.75444865      -1.74004900       1.86162000        8
O        8.87097836      -3.01399326      -2.89652610      -0.77935000       12
O       10.41439724      -0.94162691      -1.02259159      -0.80903500       13
O        8.98396301       0.02985813      -2.82725859      -0.99923400       14
O        6.79651070      -1.03444326      -2.15834546      -0.84406400       15
Ti       7.19720650       0.37423059      -3.29310966       1.89559800        9
O        6.54688787       0.24402377      -4.91157818      -0.83202400       16
O        7.07716513      -5.49277496      -2.78227925      -0.88964300       17
Ti       4.78858137       5.61307812      -1.30912220       1.85718500       10
Ti       4.97554541       3.26950932      -3.05959177       1.87981600       11
Ti       3.07072043       4.26466990       2.49178362       1.80662000       12
Ti       3.37615180       1.85104764      -0.12680276       1.97883300       13
O        4.12111664       5.72681808       3.05268860      -0.93933700       18
O        5.36792040       2.06323266      -0.04572313      -0.87391400       19
O        4.28039265       5.02107811      -2.95256877      -0.75851900       20
O        5.80379152       7.07188034      -1.38646698      -0.89755100       21
O        3.05541563       5.92036724      -0.49040571      -0.91260200       22
O        3.67274308       2.45979452      -2.15269494      -1.04238100       23
O        5.34602880       4.93355751       0.81583655      -1.06067700       24
O        2.88802624       3.38395190       0.55866581      -1.03526600       25
Ti       1.56667197       5.06052876      -0.29214218       1.86136500       14
Ti       1.71361482       2.54584384      -2.63992929       1.92724600       15
Ti      -0.31231564       3.83663511       1.83237493       1.84244800       16
Ti      -0.16812669       1.38471079      -0.55653012       1.95363700       17
O        1.26354790       4.91480350       1.74618530      -1.13092500       26
O        1.73912001       1.46095788      -1.01789987      -1.01989000       27
O        1.46121681       4.09821367      -2.00498176      -0.88493000       28
O        0.13590877       6.15417719      -0.61921513      -0.94812800       29
O        0.02884095       3.18440294       0.25350320      -0.66485900       30
Ti       4.66440058       0.78574914      -5.16940689       1.83343300       18
Ti       3.01231790      -1.75341225      -3.74649382       1.90778200       19
O        3.10827947      -2.24568772      -5.20663500      -0.76649200       31
O        4.84274435       2.55507708      -4.71734047      -0.73538700       32
O        3.12270975       0.63357919      -6.26027584      -0.87911400       33
O        4.06438398       0.00374337      -3.79738832      -0.96166500       34
O        3.83380866      -0.72145790      -0.89573675      -1.04842900       35
O        4.48044300      -2.77745271      -2.80468202      -0.91733300       36
O        1.95078170      -3.14880657      -2.69706273      -0.88495300       37
Ti       1.52902806       0.81319994      -5.41875601       1.82148300       20
O        1.30404031      -0.45674556      -3.96185827      -1.05517700       38
O        1.75124693       2.29663563      -4.48991680      -0.85603100       39
O       -0.17517607       0.77961165      -6.11533356      -1.14536600       40
O       -0.14740737      -0.49221230      -1.13746393      -1.02654100       41
O       -0.45051205      -2.36397815      -2.88860059      -0.81325400       42
Ti      -0.31266451      -0.70677352      -3.03885007       1.91379400       21
Ti      -1.62445414       5.60072374      -0.69378227       1.86289100       22
Ti      -1.89160442       2.74932528      -2.64897156       1.92788300       23
O       -1.73579109       5.00279617       1.04051340      -1.12452000       43
O       -1.96549618       1.69734573      -0.92472059      -1.02153000       44
O       -1.57001412       4.34653997      -2.04269385      -0.88227800       45
O       -0.14943400       1.75294363      -2.54800153      -1.04895400       46
Ti      -4.93057060       5.90319729      -1.57392132       1.85706000       24
Ti      -5.10399294       3.42844558      -3.23718262       1.87509200       25
Ti      -3.40528250       4.17664003       1.94757485       1.80413200       26
Ti      -3.82191157       1.03771293      -0.74876213       1.97473000       27
O       -4.14186525       5.79149389       2.59811687      -0.93736800       47
O       -5.65798378       1.66846478      -0.50139946      -0.88317300       48
O       -4.46714830       5.03867435      -3.34184742      -0.75021100       49
O       -3.18585205       6.41201067      -1.05883026      -0.91270900       50
O       -5.99705362       7.26932096      -1.77549827      -0.89739500       51
O       -3.76582336       2.50849080      -2.40450144      -1.05265900       52
O       -4.09985113       3.58865762       0.49668601      -1.03715500       53
O       -5.66077518       5.94579029       0.30398512      -1.06347500       54
Ti      -1.87034142       0.99572748      -5.39590216       1.82260300       28
O       -1.94775939      -0.29701176      -3.96204829      -1.05080400       55
O       -1.92899442       2.52633166      -4.48189688      -0.85140000       56
O       -2.57013583      -3.34532094      -3.77053785      -0.88243700       57
Ti      -5.12726259       0.76110858      -5.14847040       1.83201000       29
Ti      -3.67643666      -1.54935682      -3.72028279       1.90091100       30
O       -4.32345772      -1.58889914      -5.15490103      -0.75751200       58
O       -5.28143120       2.46900296      -4.90257740      -0.73359900       59
O       -3.46377182       0.76812053      -6.12017345      -0.88821600       60
O       -3.40978885      -0.71302295      -1.33136213      -1.05110400       61
O       -4.92902565       0.15331525      -3.44452572      -0.94128000       62
O       -4.62051392      -2.91610456      -2.60028481      -0.90296900       63
Ti      -5.70200920       6.38343048       2.02251792       1.83798700       31
O       -5.99348259       4.23144531      -1.69732153      -1.04358900       64
O       -6.45696926       8.06103802       1.30965364      -0.92488200       65
Ti     -10.27892303       3.99315500      -0.92312753       1.75996500       32
Ti      -7.11783981       7.45273781      -0.18743698       1.78665700       33
Ti      -7.26431847       2.95368743      -1.12997103       1.94641500       34
Ti     -10.07710266       0.94239789      -0.96018153       1.68904600       35
Ti      -9.83974361       6.77154684       0.36273178       1.74664700       36
O      -10.82934284       5.82561684      -0.75025272      -0.94910900       66
O       -7.07478571       3.26985741       0.93855411      -1.14181600       67
O       -8.45451450       1.52577293      -0.32799724      -0.92790900       68
O       -8.22868538       5.87626171       0.27194130      -1.01758400       69
O      -11.04833412       2.33570457      -1.46553719      -0.94959300       70
O       -9.82474709       6.02315712       2.14209366      -0.82305500       71
O       -8.85185909       8.16767406      -0.27403390      -0.89355100       72
O       -8.72799778       3.89149594      -1.78521037      -0.82757700       73
O       -9.75241661       3.65440845       0.68002135      -0.89676500       74
O       -6.89982462       2.04264760      -2.73252487      -0.97362600       75
Ti      -5.57025814       2.25249815       1.28323162       1.87981800       37
Ti      -8.56729317       4.77072811       2.00852418       1.88504000       38
O       -7.02661848       0.18475173      -4.84240150      -0.84116400       76
Ti      -7.15598154       0.23027793      -3.13231683       1.89426300       39
Ti      -8.92294598      -1.75846863      -1.45106637       1.85415300       40
O       -9.37208939      -3.08036757      -2.55172372      -0.78182700       77
O      -10.51085281      -0.93460613      -0.61488348      -0.82143300       78
O       -8.99416924      -0.03105097      -2.39457917      -1.01890800       79
O       -7.00077963      -1.43902612      -2.11929464      -0.84143900       80
O       -7.31323147      -5.13956881      -2.76239371      -0.88565700       81
Ti       8.92280865       1.75843906       1.45122504       1.85418400       41
O        8.99407673       0.03101150       2.39486361      -1.01895500       82
O        7.00066423       1.43892992       2.11938262      -0.84146600       83
O        9.37192535       3.08033109       2.55192494      -0.78186300       84
O        7.31316900       5.13954926       2.76257396      -0.88568200       85
O       10.51077843       0.93463778       0.61514550      -0.82143800       86
Ti       7.15595388      -0.23038234       3.13250780       1.89425400       42
O        7.02665758      -0.18506339       4.84260035      -0.84123100       87
Ti       8.56734562      -4.77073908      -2.00829268       1.88496500       43
Ti       5.57036495      -2.25247240      -1.28384912       1.87975800       44
O        6.89940786      -2.04253125       2.73232841      -0.97358000       88
Ti      10.27882385      -3.99304795       0.92338264       1.75479300       45
Ti       9.83974075      -6.77147293      -0.36234045       1.74672100       46
Ti      10.07711697      -0.94233030       0.96042329       1.68870600       47
Ti       7.26418018      -2.95367312       1.12968910       1.94658100       48
Ti       7.11782169      -7.45280218       0.18747209       1.78646500       49
O        8.72783089      -3.89135957       1.78528619      -0.83276200       89
O        8.85180855      -8.16767311       0.27427384      -0.89497200       90
O        9.75251102      -3.65433908      -0.67986912      -0.89491300       91
O        8.45455551      -1.52565432       0.32810947      -0.92783500       92
O        7.07501268      -3.26987720      -0.93862301      -1.14166300       93
O       10.82929134      -5.82548761       0.75064248      -0.94799800       94
O       11.04830933      -2.33566046       1.46578681      -0.94758400       95
O        8.22865391      -5.87622738      -0.27169809      -1.01755800       96
O        9.82484627      -6.02319241      -2.14169359      -0.81690800       97
O        6.45716953      -8.06113243      -1.30969703      -0.92458900       98
Ti       5.70207071      -6.38357830      -2.02259994       1.83795300       50
O        5.99342394      -4.23148060       1.69715393      -1.04402900       99
Ti       3.67646170       1.54946434       3.72089648       1.90088900       51
Ti       5.12729073      -0.76140791       5.14883423       1.83198400       52
O        3.46386576      -0.76804072       6.12032747      -0.88823900      100
O        4.62022495       2.91587496       2.60028172      -0.90297700      101
O        4.92874384      -0.15302977       3.44527221      -0.94125900      102
O        3.40998530       0.71260864       1.33039331      -1.05108900      103
O        4.32318068       1.58972251       5.15547848      -0.75751900      104
O        5.28126144      -2.46924615       4.90253496      -0.73371300      105
O        2.56991267       3.34564734       3.77062821      -0.88246900      106
Ti       1.87039363      -0.99569231       5.39588404       1.82259700       53
O        1.94769120       0.29706177       3.96210265      -1.05078500      107
O        1.92906773      -2.52620840       4.48179579      -0.85144900      108
Ti       3.82186818      -1.03811145       0.74789345       1.97471900       54
Ti       3.40533638      -4.17692423      -1.94769073       1.80412400       55
Ti       5.10384417      -3.42830324       3.23694658       1.87507400       56
Ti       4.93048668      -5.90319109       1.57380772       1.85709900       57
O        3.76579094      -2.50820899       2.40419126      -1.05268500      109
O        5.99695683      -7.26925421       1.77556300      -0.89743600      110
O        3.18566823      -6.41205168       1.05875754      -0.91282000      111
O        5.66069365      -5.94598818      -0.30405188      -1.06349100      112
O        4.09981012      -3.58902860      -0.49688071      -1.03719000      113
O        5.65793514      -1.66862667       0.50089884      -0.88309600      114
O        4.14198589      -5.79178238      -2.59836102      -0.93729700      115
O        4.46690798      -5.03848505       3.34162521      -0.75007600      116
Ti       1.89158630      -2.74911261       2.64878941       1.92787000       58
Ti       1.62443364      -5.60061455       0.69366997       1.86292200       59
O        0.14947809      -1.75269473       2.54779363      -1.04895700      117
O       -0.13599358      -6.15396690       0.61916327      -0.94814100      118
O       -0.02895377      -3.18449283      -0.25378326      -0.66485400      119
O        1.96538210      -1.69762397       0.92423815      -1.02153500      120
O        1.73576474      -5.00307369      -1.04080439      -1.12453400      121
O        1.56999612      -4.34633446       2.04254675      -0.88230700      122
Ti      -1.52888775      -0.81316596       5.41873407       1.82150300       60
O        0.17530678      -0.77980793       6.11539364      -1.14537300      123
O        0.45060337       2.36385703       2.88820624      -0.81322700      124
O        0.14754744       0.49223801       1.13714457      -1.02652200      125
O       -1.30383062       0.45685282       3.96185946      -1.05516900      126
O       -1.75119734      -2.29653525       4.48981428      -0.85605700      127
Ti       0.31273681       0.70662212       3.03859901       1.91378100       61
O       -1.95061147       3.14879870       2.69703341      -0.88498600      128
Ti      -3.01218987       1.75346208       3.74668455       1.90780500       62
Ti      -4.66416407      -0.78577781       5.16946411       1.83342700       63
O       -3.12246108      -0.63355237       6.26034594      -0.87915600      129
O       -4.48020124       2.77710509       2.80441117      -0.91735600      130
O       -3.83393788       0.72040856       0.89468086      -1.04843100      131
O       -4.06398392      -0.00387013       3.79744935      -0.96161100      132
O       -3.10832500       2.24579978       5.20678759      -0.76653500      133
O       -4.84265900      -2.55504251       4.71741104      -0.73542500      134
Ti       0.16809444      -1.38467014       0.55622154       1.95364700       64
Ti       0.31234759      -3.83676624      -1.83254921       1.84245200       65
Ti      -1.71366954      -2.54561400       2.63978601       1.92724500       66
Ti      -1.56668961      -5.06030607       0.29210424       1.86137600       67
O       -1.73907590      -1.46099079       1.01758754      -1.01988800      135
O       -1.26361597      -4.91487885      -1.74639463      -1.13093300      136
O       -1.46117699      -4.09800243       2.00494409      -0.88494500      137
Ti      -3.37620258      -1.85085773       0.12644719       1.97884000       68
Ti      -3.07075119      -4.26478767      -2.49186134       1.80661300       69
Ti      -4.97545719      -3.26935458       3.05958629       1.87985900       70
Ti      -4.78855038      -5.61304092       1.30927837       1.85719200       71
O       -3.67272329      -2.45973063       2.15257072      -1.04238800      138
O       -3.05540538      -5.92017031       0.49050766      -0.91260900      139
O       -5.80377245      -7.07188129       1.38654470      -0.89755500      140
O       -2.88803935      -3.38386393      -0.55886841      -1.03526400      141
O       -5.34610891      -4.93367958      -0.81577599      -1.06068200      142
O       -5.36786652      -2.06307435       0.04557723      -0.87395200      143
O       -4.12123919      -5.72682381      -3.05280542      -0.93932600      144
O       -4.28035831      -5.02100706       2.95263243      -0.75850900      145
O       -6.54657984      -0.24390519       4.91156912      -0.83205300      146
Ti      -7.19696712      -0.37413347       3.29310608       1.89559400       72
Ti      -8.72539616       1.75441229       1.74017537       1.86136000       73
O       -8.98375225      -0.02975098       2.82740068      -0.99925900      147
O       -6.79643154       1.03437674       2.15810657      -0.84387500      148
O       -7.07702255       5.49276733       2.78238773      -0.88945500      149
O       -8.87080669       3.01400805       2.89665580      -0.78015000      150
O      -10.41422844       0.94164795       1.02278888      -0.80955800      151
Ti      -5.97023582      -2.81856537      -1.35302591       1.86852400       74
Ti      -8.76058483      -4.71377182      -1.81237817       1.87621400       75
Ti      -5.68422890      -5.94514894      -2.20163155       1.83766200       76
O       -6.05132341      -4.20755577       1.60019076      -1.04118400      152
O       -6.26754141      -7.55805159      -1.43325293      -0.93041900      153
O       -6.70724201      -2.07960439       2.72518134      -0.95327000      154
Ti     -10.58061218      -4.08769083       1.34981966       1.77493900       77
Ti      -9.85008812      -6.81333780      -0.05361513       1.72789500       78
Ti      -7.56707859      -3.14563632       1.32769954       1.95632100       79
Ti     -10.13321495      -0.94485891       1.36773694       1.70024500       80
Ti      -7.11881876      -7.46526432       0.12013051       1.79021600       81
O       -8.85769176      -3.95938826       2.13882089      -0.77726200      155
O       -8.73620033      -8.30134296       0.25150651      -0.87504500      156
O      -10.20751762      -3.81361008      -0.19807334      -0.95525900      157
O       -7.69831371      -3.42755413      -0.67554206      -1.14615800      158
O       -8.52785015      -1.54917216       0.65846807      -0.90693500      159
O      -10.82688332      -5.99682999       1.19850981      -0.93973400      160
O       -8.17156601      -5.92746210      -0.04106335      -1.00268600      161
O      -11.12171841      -2.30304313       1.92559195      -0.96993200      162
O       -9.99317741      -6.13081598      -1.73252738      -0.86868700      163
