180
Properties=species:S:1:pos:R:3:initial_charges:R:1:tags:I:1 pbc="F F F"
Ti       2.07328463      -2.49135184      -5.08131552       1.85754700        0
Ti       7.70595598      -2.57278943      -1.72273290       1.81037800        1
Ti       6.18554020       0.37002853      -1.39071512       1.91480600        2
Ti       5.66520452      -2.38948584      -3.83550310       1.68778500        3
Ti       7.36171198      -1.85173500       1.95403612       1.84470100        4
Ti       8.09542847       2.18099427      -0.15926135       1.83309800        5
Ti       5.36220789       0.58676773       1.78145409       1.88646700        6
O        3.69417667      -2.80446243      -4.04426718      -1.09756700        0
O        9.16740513      -1.71562421       1.79903173      -0.87195500        1
O        6.56628132       1.47736466       0.46510774      -0.97822900        2
O        7.42297983      -1.14863384       0.13681853      -1.06600500        3
O        5.21722078       1.10643291      -2.62234664      -0.85818000        4
O        2.43591189      -0.99914324      -6.21096897      -0.87148900        5
O        9.39793491      -1.82047951      -1.32117331      -0.91827000        6
O        7.09999180      -3.84705997      -0.51405472      -0.96277000        7
O        7.74024725       1.33981359      -1.72316182      -0.84602700        8
O        4.74885941      -0.03936250      -0.05952087      -1.04389700        9
O        5.99741983      -1.56896591      -5.08677959      -0.53673500       10
O        3.47986364       1.51276934      -5.34314060      -0.82260600       11
O        7.34855652      -3.29272461      -3.25389910      -0.89022200       12
O        6.26371431      -1.35471535      -2.21299362      -1.06152000       13
O        9.43157768       0.99011683       0.36878958      -0.96836600       14
O        6.67575026      -0.39896929       2.67374420      -0.84577000       15
O        7.86059618       4.00633287      -0.00589362      -0.98833400       16
O        4.67397165       1.83233917       2.66518688      -0.81173400       17
Ti       9.27813816      -0.81809640       0.18440573       1.78537900        7
O        2.44570017       0.52274656      -3.31571054      -0.97566200       18
Ti       1.85296702       0.41527662      -5.30090237       1.80519100        8
Ti       3.80519772       1.70757699      -3.65810680       1.87910500        9
O        5.19708681       4.60346603      -1.14010096      -0.96456800       19
O        5.49014044       4.00923920       1.54356682      -0.88919000       20
Ti      -0.33048183       3.11358905      -5.21385002       1.87032000       10
Ti      -3.03703332       4.78402281      -4.64844847       1.76892800       11
Ti       1.48847902       6.91238308      -1.04891837       1.79728800       12
Ti       3.51587343       4.06321049      -1.38540959       1.88372400       13
Ti      -0.20505904       5.83168650      -3.43479109       1.83775400       14
Ti       6.25624514       4.92280722       0.32055748       1.89131000       15
Ti       3.76656032       3.52647948       2.22608685       1.90818300       16
Ti       2.30123496       5.83873034       3.46481490       1.87067900       17
O       -0.51697582       4.79748774      -2.07839990      -1.04110300       21
O        3.14789200       7.32239485       2.90429068      -0.92711800       22
O        3.06134772       5.27526999       1.37619603      -0.96086000       23
O        0.69174892       7.23841095      -2.70510674      -0.84965700       24
O        0.64209986       1.64861035      -5.85556364      -0.91846800       25
O       -1.94929695       3.75817609      -5.78261280      -0.89835900       26
O        3.14822435       2.81456017      -0.04928930      -0.94088900       27
O        2.84679747       7.75399017      -0.15623190      -0.96458600       28
O        0.62175030       5.15722466       2.74343085      -0.93769500       29
O        0.51792800       4.59873819      -4.66205263      -0.89696300       30
O       -1.93989086       6.05490351      -4.11042786      -0.93018800       31
O        3.33249474       3.30534053      -2.99482846      -0.90280700       32
O        2.30758858       5.37512684      -1.45237780      -0.99238100       33
O        5.55142117       6.63317204       0.82647139      -0.94961400       34
O        3.53886533       4.38343048       3.69563532      -0.87723000       35
Ti       3.81161761       6.93212080       1.17717934       1.86318100       18
O        0.25455248       6.51821995       0.19751899      -0.98649100       36
O        0.36029339       3.45582676       0.12465476      -1.03528400       37
O        4.52599859      -4.19114113      -1.87581861      -0.91248200       38
Ti      -0.08982334      -4.40299654      -4.63128519       1.84810200       19
Ti      -0.86935323      -1.49835742      -3.53496075       1.89758300       20
Ti       5.37681866      -4.26735163      -0.27099431       1.82196000       21
Ti       3.55077791      -1.35297859       0.40142420       2.01675100       22
Ti       2.84685087      -3.44490695      -2.32133532       1.95962500       23
Ti       1.50150383      -0.16758630      -1.73098648       2.04542400       24
Ti       5.10503340      -4.38381624       2.77112889       1.84615600       25
Ti       2.84373879      -1.53485465       3.63235378       1.87746500       26
O        1.30810118      -3.48923683      -3.45401096      -0.91039900       39
O       -0.03756226      -1.06972134      -1.74129796      -1.01593800       40
O        6.55804777      -3.32508230       2.71060109      -0.98222800       41
O        3.91712618      -0.77601159       2.15218353      -1.04343200       42
O        4.73435831      -2.76614928       0.50849676      -0.99037000       43
O        2.08323932       0.12989923      -0.01029258      -1.01636100       44
O       -1.10435915      -3.05594563      -4.70705652      -0.84549600       45
O        5.09056330      -5.33100271       1.22616315      -0.88480700       46
O        1.97034335      -2.35109019       1.15683186      -1.03793800       47
O        1.28512812      -3.83147287      -5.89817238      -0.85159400       48
O        0.83920938      -1.08394349      -4.36774969      -1.08383300       49
O        2.77644587      -1.82669044      -1.51047397      -1.03921700       50
O        3.65741348      -1.48357141       4.93422556      -0.75755800       51
O        1.78363037       0.18771221       3.88000751      -0.89425400       52
Ti       0.52058518      -2.92654634       1.72615552       1.95926100       27
Ti      -1.55995893      -1.99125850      -0.45299491       1.93145900       28
O        4.80463219      -5.29806852       4.32656956      -0.81821000       53
O        0.93270355      -2.45057917       3.61572981      -1.03429100       54
O        1.90778947      -4.75764227      -1.23789990      -1.02957000       55
O       -0.82505256      -1.61231554       1.48345101      -0.96860000       56
O       -1.32032394      -5.82621670      -4.96959019      -0.96009100       57
O       -2.04918718      -2.48301005      -2.18602467      -0.98228300       58
Ti       0.19291842      -4.98493338      -1.07268679       1.88851000       29
O        3.41076064      -3.59586191       3.24721575      -0.75138100       59
O       -3.40677738       3.59461045      -3.24366188      -0.74964700       60
Ti      -0.19101249       4.98493767       1.07223022       1.88844800       30
Ti      -2.84496117       1.53482139      -3.63576007       1.87924400       31
Ti      -5.10213184       4.38137913      -2.76451445       1.84667500       32
Ti       1.56137562       1.99220908       0.45464963       1.93616400       33
Ti      -0.51777476       2.92619348      -1.72836232       1.95729300       34
Ti       0.86638993       1.49793327       3.53321338       1.89980300       35
Ti       0.08752532       4.40221262       4.63279009       1.84958600       36
O       -1.96351647       2.35465288      -1.14537501      -1.03630000       61
O       -5.09107637       5.33391571      -1.22320414      -0.88239100       62
O        2.05095387       2.48164344       2.18819094      -0.98496600       63
O        1.31865609       5.82470560       4.97098398      -0.96072300       64
O       -1.79042602      -0.19093917      -3.88166738      -0.88838300       65
O       -3.66128039       1.48465717      -4.93608522      -0.76248300       66
O        0.03670715       1.07309008       1.73840785      -1.01290800       67
O       -1.30975080       3.49205518       3.45373440      -0.91153300       68
O       -0.93200392       2.44657230      -3.61432600      -1.03601400       69
O       -4.80413294       5.29592037      -4.31987572      -0.82259500       70
O        0.82863188       1.61340070      -1.48274076      -0.96971200       71
O       -1.90675390       4.75326061       1.23290122      -1.02832000       72
O        1.10071981       3.05311871       4.70735502      -0.84891800       73
Ti      -1.50203073       0.16794293       1.73295832       2.03859100       37
Ti      -2.84490705       3.44556022       2.32054710       1.96191200       38
Ti      -3.54925895       1.35732639      -0.40239590       2.00652400       39
Ti      -5.37554216       4.27133751       0.27553535       1.82025400       40
O       -0.84661734       1.08205581       4.35799599      -1.08444700       74
O       -1.28726518       3.83183002       5.89788675      -0.85291800       75
O       -2.77814412       1.82498276       1.51396930      -1.04349700       76
O       -3.91590953       0.78055429      -2.15279412      -1.04361700       77
O       -6.55680561       3.32396889      -2.70738959      -0.98309600       78
O       -2.08341932      -0.13000454       0.01247827      -1.02537100       79
O       -4.72806692       2.77286816      -0.50808531      -0.99250200       80
O       -4.52460957       4.19510698       1.87921810      -0.91134900       81
O       -0.35289416      -3.45255256      -0.12570429      -1.03633600       82
O       -0.25413123      -6.51870298      -0.19897124      -0.98692100       83
Ti      -2.30251527      -5.83926249      -3.46354127       1.86454200       41
Ti      -3.76606083      -3.52605033      -2.22404242       1.90817300       42
Ti      -6.25627899      -4.92224979      -0.32098207       1.89537900       43
Ti       0.20773576      -5.83179188       3.43214464       1.83788600       44
Ti      -3.51452422      -4.06433916       1.38896692       1.87068500       45
Ti      -1.48726583      -6.91080570       1.04862249       1.79643400       46
Ti       3.03741908      -4.78451777       4.65185261       1.77009200       47
Ti       0.33040038      -3.11550593       5.21372175       1.87124900       48
O       -0.62284553      -5.15674305      -2.74296427      -0.93523200       84
O       -2.84985423      -7.74953604       0.16025929      -0.96285200       85
O       -3.14427686      -2.81439352       0.05453372      -0.93906600       86
O        1.94107771      -6.05496597       4.11089277      -0.93298700       87
O       -0.51692444      -4.60054827       4.65975618      -0.89381700       88
O       -2.29879451      -5.36941624       1.45516539      -0.99364800       89
O       -3.34083295      -3.31072569       3.00173831      -0.88214900       90
O       -3.53961849      -4.38337326      -3.69362235      -0.87388000       91
O       -5.55465364      -6.63275433      -0.83008456      -0.95837400       92
O        0.52272654      -4.79798460       2.07570839      -1.04403300       93
O       -3.14900398      -7.32264233      -2.90196466      -0.92203400       94
O       -0.68879801      -7.23924160       2.70295095      -0.84961900       95
O       -3.06262803      -5.27483654      -1.37373686      -0.96155900       96
O        1.94779205      -3.76054144       5.78599930      -0.89796700       97
O       -0.64538264      -1.64905882       5.85236692      -0.90738100       98
Ti      -3.81385589      -6.93114758      -1.17592371       1.85990300       49
O       -5.49023771      -4.00712729      -1.54328549      -0.87398000       99
O       -5.19352818      -4.60880518       1.13811409      -0.93409500      100
Ti      -3.81026840      -1.70985413       3.65968180       1.91909100       50
Ti      -1.85526073      -0.41728225       5.29816866       1.82064900       51
O       -2.44899154      -0.52978808       3.31385732      -1.03020900      101
Ti      -5.36122656      -0.58399844      -1.78206325       1.88475600       52
Ti      -8.09559345      -2.17900443       0.15786353       1.82794200       53
Ti      -7.36551619       1.84944379      -1.96062481       1.83921200       54
Ti      -5.66414976       2.38566422       3.83526659       1.68687300       55
Ti      -6.18476486      -0.36934990       1.38752079       1.89748000       56
Ti      -7.70565605       2.57307506       1.72288084       1.81937200       57
Ti      -2.07596898       2.49006438       5.08127356       1.85620200       58
O       -4.74919367       0.04357663       0.05716067      -1.04411800      102
O       -7.74256849      -1.33659458       1.72023189      -0.81765800      103
O       -7.09800053       3.85081053       0.51925260      -0.96468000      104
O       -9.39679432       1.82040489       1.31937909      -0.92126300      105
O       -3.48447776      -1.50984168       5.34462452      -0.81800200      106
O       -5.99487400       1.55807030       5.08223009      -0.55139400      107
O       -6.26201773       1.35512221       2.20886731      -1.10048600      108
O       -7.34936333       3.28798723       3.25652981      -0.88924600      109
O       -4.67001867      -1.83025730      -2.66283107      -0.81047400      110
O       -7.85927391      -4.00461531       0.00714598      -0.98317000      111
O       -6.67549276       0.39703262      -2.67809796      -0.84737300      112
O       -9.43154430      -0.98879683      -0.37256896      -0.97422700      113
O       -3.69523025       2.80306673       4.04551315      -1.10694500      114
O       -6.56521225      -1.47560477      -0.46597055      -0.97253400      115
O       -9.17178822       1.71364319      -1.80347252      -0.87164400      116
O       -5.21864223      -1.11101925       2.61669016      -0.83148900      117
O       -7.42351532       1.15228343      -0.14337777      -1.05347700      118
O       -2.43311787       1.00018632       6.21096849      -0.88160800      119
Ti      -9.27918339       0.81917024      -0.18746939       1.77820500       59
