246
Properties=species:S:1:pos:R:3:initial_charges:R:1:tags:I:1 pbc="F F F"
Ti      -7.12347078       5.34679651       2.24053240       1.82514300        0
Ti      -3.42151880       5.43502235       2.87060189       1.89671000        1
Ti      -3.19229221       4.36411858      -0.88416964       1.87897200        2
Ti      -8.97233295       3.13581300       2.76234055       1.80824200        3
Ti      -5.26238585       3.07749486       3.25003433       1.84635100        4
Ti      -8.89878368       0.86097944       0.34154746       1.91572400        5
Ti      -6.09217834       2.77294421      -0.14025718       1.95581300        6
Ti      -6.01467752       6.62306881      -0.06052293       1.85265000        7
Ti      -2.87129664       7.15692520       0.64705688       1.87084300        8
O       -6.93608141       7.00057936       1.48217344      -0.83963400        0
O       -3.10843492       7.12173939       2.59859252      -0.80367500        1
O       -6.71398115       7.23415470      -1.57428575      -0.79316000        2
O       -2.47229385       6.45889711      -1.23696744      -0.89147600        3
O       -9.47719574       2.48162246       1.22291601      -0.85275100        4
O       -4.86523771       2.74104357       1.69320285      -0.77445500        5
O       -6.51270199       4.73453140       0.59267724      -0.96585600        6
O       -3.29339862       5.32384682       0.96002418      -1.00424900        7
O       -8.89272118       5.01675034       2.63469529      -0.88039400        8
O       -5.32766104       5.15918112       3.11503887      -1.06076800        9
O       -4.97140646       5.48625135      -1.42352498      -1.12758300       10
O       -7.18827724       3.31062102       2.96202755      -1.06866200       11
O       -3.54637194       3.56392741       4.01978922      -1.10074700       12
O       -7.21047258       1.70363975       0.58729452      -0.70042500       13
O       -4.13010883       3.03554368      -0.77691990      -0.80558000       14
O       -4.42572594       7.73973227       0.20058045      -0.85313800       15
Ti      -7.06046963       3.30982423      -3.38819313       1.84032900        9
Ti      -3.44400811       2.89739799      -4.09602308       1.77049700       10
Ti      -8.90726948       0.81154048      -3.03492689       1.82013400       11
Ti      -5.27587795       0.50231946      -3.11019564       1.94608800       12
Ti      -5.69188309       6.29210424      -2.85652351       1.85101200       13
Ti      -2.53983617       6.28509712      -2.97839928       1.84349600       14
O       -6.64981985       5.09491730      -3.77096534      -0.83337800       16
O       -3.55813909       3.43087983      -5.53280210      -0.47671400       17
O       -9.55990791       0.94537395      -1.25492775      -0.85448900       18
O       -5.40686989       0.98123169      -1.13990915      -0.92815900       19
O       -9.54672432      -0.91790158      -3.50847268      -0.97697300       20
O       -5.76904631      -0.87392896      -4.52244139      -0.77873000       21
O       -7.05658531       3.27144384      -1.60732102      -1.01905000       22
O       -2.89622569       4.45179033      -2.88427114      -1.09910600       23
O       -8.61166096       2.47639680      -3.88255501      -0.91029400       24
O       -5.47169685       2.45477462      -3.72331524      -1.10101700       25
O       -7.30533743       0.50203186      -2.82428503      -0.93394900       26
O       -3.57444572       0.85977006      -3.57230544      -1.04699900       27
O       -4.11699581       6.95588779      -3.60404992      -0.91837500       28
Ti       0.28838983       5.17428207       3.17742324       1.91083400       15
Ti       0.37413454       3.95888305      -0.39596489       1.97853400       16
Ti      -1.79558790       2.89321756       3.83245540       1.90758500       17
Ti       1.89101017       2.52037716       3.93434548       1.90030900       18
Ti      -1.61505699       1.67313743       0.34599695       1.95014700       19
Ti       1.97649753       1.10195804       0.35817254       1.97678600       20
Ti       0.53442055       6.79672813       0.82509261       1.85911300       21
O        0.55729920       6.86252832       2.75910306      -0.80511600       29
O        0.54594010       5.65463018      -0.97940862      -0.94411000       30
O       -1.94470727       2.05295587       2.30529523      -0.96674700       31
O        1.83612740       1.58207178       2.43393874      -0.96330100       32
O        0.28658736       4.89742327       1.35603034      -1.02165500       33
O       -1.60687041       4.94423866       3.41090679      -1.07619800       34
O        2.08692598       4.69596148       3.73385811      -1.07634900       35
O       -1.58318734       3.53707790      -0.33863458      -1.08045400       36
O        2.01994872       3.20628572      -0.10570869      -1.02669200       37
O        0.10081347       3.22539234       4.06779575      -1.11110100       38
O        0.06232151       1.78974617       0.29342076      -0.91221200       39
O       -0.91744155       7.66866636       0.59080452      -0.86295900       40
O        2.42197704       7.22390890       0.53321850      -0.86595900       41
Ti       0.26613957       2.68037200      -3.91773796       1.91291300       22
Ti      -1.66202009       0.27167448      -3.36759949       1.96614900       23
Ti       1.97838092       0.00736946      -3.32406592       1.96837000       24
Ti       0.64001560       5.43691444      -3.11983371       1.87336700       25
O        0.51112705       4.28979778      -4.63838625      -0.79259000       42
O       -1.96036685       0.62549567      -1.20628059      -1.00359800       43
O        1.83808947       0.13370606      -1.19052148      -1.00241000       44
O       -1.72120726      -0.90123069      -4.77829599      -0.77555300       45
O        1.87822771      -1.15634704      -4.63739014      -0.79393600       46
O        0.36730030       3.61158323      -2.33778715      -1.01841800       47
O       -1.53003573       2.18307590      -4.07292938      -1.05699700       48
O        2.03206515       1.93211246      -4.16795826      -1.04621500       49
O        0.13767020       0.57470787      -3.23248506      -1.04821200       50
O       -0.74966663       6.49000454      -3.49404478      -0.91312200       51
O        2.39948559       5.97644091      -3.14603353      -0.88564200       52
Ti       3.91744089       4.93008995       3.29553366       1.89411900       26
Ti       7.42889452       4.86063147       2.81776142       1.80953000       27
Ti       3.98448157       3.45754862      -0.16845486       2.03271600       28
Ti       7.64817142       2.69352436       0.08733945       1.99906400       29
Ti       5.50021744       2.27823734       3.57455921       1.83808500       30
Ti       9.04714108       2.46488523       2.73462653       1.79186400       31
Ti       5.49207401       0.58936822       0.18413900       1.93783100       32
Ti       3.92714453       6.40039635       0.78445971       1.87250800       33
Ti       7.26585865       6.48566628       0.48799843       1.81491200       34
O        4.08178234       6.56789637       2.74104285      -0.81974800       53
O        7.74131823       6.59691763       2.27700663      -0.86166000       54
O        3.96696472       5.21604204      -0.82858312      -1.03545300       55
O        8.10254097       6.25889492      -1.19735789      -0.96441400       56
O        5.01278830       1.19305182       2.22448945      -0.94098300       57
O        9.29023552       2.73765469       0.93381494      -0.87383200       58
O        3.89922786       4.47344208       1.49328983      -1.03119400       59
O        7.17582226       4.69853544       0.88424104      -1.02462000       60
O        5.81993961       4.46065426       3.68503094      -1.09601000       61
O        8.96767807       4.17831373       3.48839664      -0.87270100       62
O        5.68668699       2.73754549      -0.01858422      -1.02214400       63
O        3.78700948       2.90923929       4.05040216      -1.10103800       64
O        7.25572729       2.61539912       2.49152422      -1.07761300       65
O        3.68792725       1.45576775       0.11294343      -0.96256400       66
O        7.50043201       0.89637297       0.04909564      -1.05123100       67
O        5.61647272       7.11023045       0.35949120      -0.89091200       68
Ti       3.90101767       2.47059751      -3.91491103       1.90736400       35
Ti       7.70850801       2.53279638      -3.66118145       1.83732100       36
Ti       5.65790606       0.09252763      -3.24477315       1.90526800       37
Ti       9.28888321       0.07266478      -3.28663492       1.78697200       38
Ti       3.96985459       5.10828972      -2.88477039       1.89504800       39
Ti       7.41759682       5.12392569      -2.43945837       1.82209300       40
O        4.00508118       4.15577984      -4.51941013      -0.81022700       69
O        7.92618370       4.31475687      -4.02422619      -0.83572000       70
O        5.31412601       0.02240417      -1.42266071      -0.86292800       71
O        9.84901905       0.17838001      -1.60080063      -0.86632600       72
O        5.64716864      -1.38007414      -4.10944033      -0.83745400       73
O        9.47128296      -1.62409317      -3.84650946      -0.94428300       74
O        3.85872245       3.25848031      -2.26648974      -0.96592400       75
O        7.66973543       3.30118275      -1.78974664      -1.08795700       76
O        5.83468819       1.95864391      -4.05835199      -1.11178600       77
O        9.20623016       1.79225230      -4.20421934      -0.84701600       78
O        3.80273008       0.49901471      -3.44880414      -1.08279500       79
O        7.56161594       0.44533992      -2.94809151      -1.05200200       80
O        5.76573133       5.62650394      -2.77066851      -0.89296000       81
O       -9.47075844       1.62594831       3.84506488      -0.94095200       82
Ti      -7.41696453      -5.12296534       2.43742514       1.82363000       41
Ti      -3.96946073      -5.10891771       2.88269854       1.89698000       42
Ti      -9.28879833      -0.07116735       3.28522420       1.78643600       43
Ti      -5.65795612      -0.09230106       3.24656105       1.90583100       44
Ti      -7.71039391      -2.53263927       3.65805340       1.83874800       45
Ti      -3.90297985      -2.47189379       3.91499901       1.90450500       46
O       -7.66967583      -3.30093384       1.78765166      -1.08716900       83
O       -3.85893202      -3.25900126       2.26575422      -0.96834100       84
O       -5.64797306       1.38032591       4.11150789      -0.83888600       85
O       -9.84824657      -0.17406733       1.59940374      -0.86313900       86
O       -5.31529427      -0.02351268       1.42374814      -0.86114900       87
O       -7.92713404      -4.31514311       4.02170181      -0.83506000       88
O       -4.00377989      -4.15488958       4.51955748      -0.80611600       89
O       -5.76484203      -5.62604856       2.77093387      -0.89320300       90
O       -7.56160307      -0.44533423       2.94934344      -1.05182900       91
O       -3.80331516      -0.49826035       3.45004487      -1.08244700       92
O       -9.20906353      -1.79303563       4.19955063      -0.84507800       93
O       -5.83530951      -1.95935082       4.05757761      -1.11018000       94
Ti      -7.26535559      -6.48713064      -0.48819631       1.81524400       47
Ti      -3.92684460      -6.40095568      -0.78452134       1.87363400       48
Ti      -5.49222374      -0.59005171      -0.18248375       1.93605200       49
Ti      -9.04758835      -2.46561980      -2.73557019       1.79090800       50
Ti      -5.49998426      -2.27939653      -3.57231545       1.83451100       51
Ti      -7.64872169      -2.69233656      -0.09157767       1.99822900       52
Ti      -3.98465157      -3.45702314       0.16829565       2.03431200       53
Ti      -7.42854261      -4.86217833      -2.81779051       1.80908000       54
Ti      -3.91681671      -4.93067598      -3.29539156       1.89329400       55
O       -7.17502785      -4.70064545      -0.88435805      -1.02081100       95
O       -3.89759254      -4.47416019      -1.49331141      -1.03133400       96
O       -9.29278469      -2.73828053      -0.93589860      -0.87406300       97
O       -5.01178360      -1.19282258      -2.22312927      -0.94083600       98
O       -8.10205936      -6.25967312       1.19681072      -0.96452200       99
O       -3.96604753      -5.21673727       0.82841140      -1.03983500      100
O       -7.74098587      -6.59815741      -2.27786183      -0.86287400      101
O       -4.08225489      -6.56833649      -2.74133945      -0.81913200      102
O       -5.61571360      -7.11148453      -0.35938597      -0.89080300      103
O       -7.50047493      -0.89809114      -0.05061222      -1.05018400      104
O       -3.68761826      -1.45575392      -0.11134925      -0.96284900      105
O       -7.25582361      -2.61567330      -2.48728824      -1.07722000      106
O       -3.78671336      -2.90941072      -4.04877138      -1.10173100      107
O       -5.68583345      -2.73839450       0.01766668      -1.02480100      108
O       -8.96598625      -4.17836046      -3.49018407      -0.87495200      109
O       -5.81993103      -4.46018219      -3.68430257      -1.09607500      110
Ti      -0.64042509      -5.43726778       3.11989403       1.87432800       56
Ti      -1.97898459      -0.00849874       3.32498455       1.96742700       57
Ti       1.66149580      -0.27229494       3.36854553       1.96459600       58
Ti      -0.26695234      -2.68082142       3.91840959       1.91247500       59
O       -0.36915207      -3.61143613       2.33810735      -1.01812600      111
O       -1.87879443       1.15599227       4.63831758      -0.79378100      112
O        1.72136426       0.90092200       4.77916336      -0.77679300      113
O       -1.83766294      -0.13368003       1.19185174      -1.00381200      114
O        1.96006000      -0.62536818       1.20765305      -1.00547700      115
O       -0.51149070      -4.28990316       4.63887024      -0.79192100      116
O       -2.39991951      -5.97755146       3.14617181      -0.88422400      117
O        0.74923521      -6.48964787       3.49401569      -0.91186900      118
O       -0.13754089      -0.57404977       3.23337102      -1.04568000      119
O       -2.03217816      -1.93178689       4.16763449      -1.04785400      120
O        1.52994525      -2.18297577       4.07277107      -1.05837700      121
Ti      -0.53425497      -6.79724550      -0.82424253       1.85895500       60
Ti      -1.97589183      -1.10202885      -0.35657659       1.97828800       61
Ti       1.61557305      -1.67296672      -0.34480819       1.95457600       62
Ti      -1.89070630      -2.52072263      -3.93333364       1.90101500       63
Ti       1.79584992      -2.89416003      -3.83109999       1.90677800       64
Ti      -0.37414593      -3.95918369       0.39642623       1.97892100       65
Ti      -0.28807211      -5.17513943      -3.17687607       1.91074300       66
O       -0.28617308      -4.89810562      -1.35547054      -1.02212800      122
O       -1.83584595      -1.58143759      -2.43313932      -0.96410200      123
O        1.94541204      -2.05245495      -2.30451846      -0.96673200      124
O       -0.54634231      -5.65503502       0.98001456      -0.94892800      125
O       -0.55666816      -6.86327171      -2.75840783      -0.80555200      126
O       -2.42189789      -7.22482443      -0.53345931      -0.86489900      127
O        0.91744423      -7.66913605      -0.58925992      -0.86211900      128
O       -0.06182238      -1.78938103      -0.29276296      -0.91547200      129
O       -0.10097642      -3.22535491      -4.06582355      -1.11371200      130
O       -2.01935196      -3.20593238       0.10520498      -1.02604500      131
O        1.58269989      -3.53738141       0.33939031      -1.07835600      132
O       -2.08662343      -4.69698048      -3.73437166      -1.07459500      133
O        1.60676944      -4.94433355      -3.41091323      -1.07360700      134
Ti       2.54002905      -6.28533936       2.97830343       1.84386300       67
Ti       5.69239902      -6.29116917       2.85554671       1.85115400       68
Ti       5.27571011      -0.50326627       3.11177611       1.94425100       69
Ti       8.90779305      -0.81126601       3.03364587       1.81962300       70
Ti       3.44387746      -2.89773655       4.09584475       1.76921500       71
Ti       7.06118870      -3.30978179       3.38820314       1.84070500       72
O        2.89627576      -4.45187187       2.88399863      -1.09905300      135
O        7.05596828      -3.27204370       1.60880506      -1.01742100      136
O        5.76842213       0.87218606       4.52428770      -0.78189200      137
O        9.54788303       0.91791105       3.50789595      -0.97824000      138
O        5.40691853      -0.98108488       1.14140034      -0.93306000      139
O        9.55942631      -0.93978435       1.25082874      -0.85193300      140
O        3.55725789      -3.43119478       5.53268147      -0.47502600      141
O        6.65032768      -5.09478140       3.77115703      -0.83410000      142
O        4.11766529      -6.95560312       3.60305834      -0.91954200      143
O        3.57463598      -0.86013341       3.57276106      -1.04340200      144
O        7.30637169      -0.50090373       2.82402587      -0.93394300      145
O        5.47229147      -2.45445943       3.72467375      -1.10122100      146
O        8.61382484      -2.47570801       3.88049769      -0.91050400      147
Ti       2.87126946      -7.15720892      -0.64737087       1.87010800       73
Ti       6.01485109      -6.62352848       0.05948478       1.85154300       74
Ti       6.09164238      -2.77398491       0.13951911       1.95625700       75
Ti       8.89449787      -0.85142922      -0.34219688       1.91707500       76
Ti       5.26289940      -3.07838750      -3.24975443       1.84816200       77
Ti       8.97289085      -3.13296509      -2.76221514       1.80909400       78
Ti       3.19266415      -4.36408377       0.88392389       1.87786800       79
Ti       3.42249250      -5.43559790      -2.87054038       1.89707900       80
Ti       7.12582779      -5.34583998      -2.24001908       1.82433600       81
O        3.29344463      -5.32401085      -0.96009243      -1.00245800      148
O        6.51399136      -4.73431921      -0.59275967      -0.96023400      149
O        4.86565113      -2.74295473      -1.69243932      -0.77694100      150
O        9.47398758      -2.47563982      -1.22589469      -0.84944000      151
O        2.47249746      -6.45930576       1.23733294      -0.89649100      152
O        6.71409130      -7.23383093       1.57378268      -0.79307100      153
O        3.10791326      -7.12239456      -2.59822583      -0.80399800      154
O        6.93652534      -7.00076580      -1.48205113      -0.83771700      155
O        4.42557144      -7.74005270      -0.20062010      -0.85143100      156
O        4.12865829      -3.03419232       0.77696395      -0.80602700      157
O        7.20878601      -1.70520103      -0.58650571      -0.69932700      158
O        3.54627466      -3.56420493      -4.01961708      -1.10047800      159
O        7.18809509      -3.31282520      -2.96588731      -1.06736000      160
O        4.97173452      -5.48514032       1.42254877      -1.12791900      161
O        5.32699394      -5.16026926      -3.11430049      -1.06582800      162
O        8.89427853      -5.01527548      -2.63001323      -0.88002600      163
