180
Properties=species:S:1:pos:R:3:initial_charges:R:1:tags:I:1 pbc="F F F"
Ti       6.39434910       0.28461498       4.01010895       1.82838900        0
O        8.34085846       0.50555092       3.29475474      -0.78342400        0
O        5.84382629       0.98718852       5.57996464      -0.86499700        1
O        6.60702324      -1.47030497       4.02365351      -0.91200600        2
O        6.26757860       0.94847733       2.08562517      -1.06350100        3
Ti       7.08143139      -2.64925480       2.58427382       1.83573300        1
O        4.43606472       0.78361619       3.61665106      -0.99812700        4
O        5.91037798      -3.92608309       2.25673723      -0.86254100        5
O        4.01712465      -1.95046639       2.08966303      -0.81785500        6
Ti       4.16544008      -3.73258018       1.74401855       1.81648800        2
Ti       1.48932111      -4.78809738       2.49351048       1.82579000        3
O        0.45649114      -4.39760160       3.91935229      -0.92720600        7
O        1.95125246      -3.27564073       1.39557087      -1.15631700        8
O        3.27290177      -5.00880146       2.73273253      -0.81624600        9
O        0.78484374      -5.85637665       1.29782593      -0.85606700       10
O        1.83296740      -1.49365878       3.69419813      -0.93933100       11
Ti      -0.18552311      -5.37328577      -0.24040578       1.86755500        4
Ti       4.44870996       1.22538340       1.63990366       1.96988500        5
Ti       4.01301622       1.43938661       5.24694252       1.84885000        6
O        3.71084142       3.17393565       4.99876451      -0.96507800       12
Ti       2.34081197       4.06094027       3.97584319       1.85741700        7
O        2.44144273       4.92839098       2.45499468      -0.89945100       13
O        4.43489027       2.82715917       1.02800882      -0.86762400       14
O        1.67545545       2.47803354       3.36331296      -0.92300400       15
O        1.13039982       5.03271484       4.96708250      -0.91215100       16
O        2.60255694       0.38571888       5.84068108      -0.99449700       17
O        2.60808563       0.43922380       1.78805673      -1.05062400       18
Ti       2.24362373      -1.34520245       1.99756861       1.97236200        8
Ti      -0.73272520      -3.17442679       4.57004023       1.84876400        9
Ti       1.16279066      -0.55132318       5.14466143       1.87036800       10
O        0.08223985      -1.95681703       5.66711426      -0.91261700       19
O        0.20471983      -0.53519237       1.77386463      -1.03413900       20
O       -0.00419650       0.55471230       4.44800138      -1.03032200       21
Ti      -1.57860804       1.69740725       4.35475922       1.89231600       11
Ti       0.90309829       1.41230655       2.11783195       1.94336400       12
Ti      -1.55769980      -0.88148534       1.90135503       2.01385500       13
O       -2.62939310      -0.04647736       3.28985000      -1.01330300       22
O       -0.87564218       1.91499531       2.40222883      -1.05011200       23
O       -2.75455904       0.99303478       5.58518553      -0.82047500       24
Ti      -3.90929413       0.04824720       4.56664085       1.83461600       14
O       -2.47566581       0.45278087       0.75337666      -0.84823800       25
O        1.06664789       2.22035766       0.57368833      -0.90948500       26
O        0.16589266      -3.16911936      -0.31889647      -0.97114000       27
O       -1.50431871      -2.53198361       2.98513842      -1.12929200       28
O       -2.36300921      -2.06636810       0.64480692      -0.99879900       29
O       -4.26793814      -1.68090224       4.99552441      -0.95798700       30
O       -1.75514221      -4.94365740       0.80930585      -0.90487800       31
O       -2.18970871      -3.86698699       5.34576464      -0.91520600       32
Ti      -2.79039931      -3.70293903       1.43562508       1.91321900       15
O       -5.45432711      -5.64778185       1.40832484      -1.00724800       33
Ti      -3.90385103      -3.43432236       4.75282812       1.81736500       16
O       -6.90032244      -6.27187538       3.22747231      -0.86022900       34
O       -3.94065166      -3.94645739       2.97691035      -1.07784700       35
Ti      -7.08903742      -6.64284277       1.33187366       1.73191000       17
Ti      -5.90150785      -4.79764605       3.15523982       1.85539600       18
O       -5.36471367      -4.40435839       4.95734835      -0.84648700       36
O       -6.24588966      -7.05244017      -0.35697043      -0.87219100       37
O       -4.16651154      -3.73191452       0.16734482      -1.04951900       38
O       -8.29347610      -5.52913666       0.94380355      -0.83503300       39
Ti      -5.28115749      -5.53875494      -0.55764979       1.90255100       19
O       -6.62951183      -4.38991737      -0.77472699      -0.82074800       40
Ti      -4.12702847      -2.13817096      -0.88751572       1.74362400       20
O       -6.85191965      -3.50404906       2.27469325      -0.91055800       41
Ti       1.07497156       5.00749874       1.07238638       1.87515500       21
Ti      -0.62236714       4.84090567       4.48547220       1.84810100       22
O       -0.36070478       4.53459501       2.73862314      -1.01859500       42
O        0.80711669       6.56409645       0.59421736      -0.71038400       43
O       -2.16464114       5.88036346       4.52834702      -0.97733500       44
O       -0.99093086       3.17465901       5.14139271      -0.85430400       45
Ti      -3.37333155       6.57556200       0.72355437       1.84342500       23
Ti      -1.87464714       3.43110561       1.85726213       1.98854300       24
Ti      -3.66691566       5.82013178       3.46472526       1.83193200       25
Ti      -5.21084356       2.79019046       3.14037347       1.91277300       26
O       -5.19373083       1.27803886       4.14495897      -0.90512400       46
O       -4.86638641       2.09789515       1.36639512      -1.05366500       47
O       -4.13104200       7.19700766       2.28386855      -0.89066700       48
O       -2.92366743       2.87978220       3.23373365      -1.02413800       49
O       -4.88980913       4.58952427       3.76538897      -0.91695300       50
O       -6.71265793       4.04104805      -0.27885002      -0.85526400       51
O       -2.85108995       5.19006538       1.88213468      -1.03226200       52
Ti      -3.75281525       1.21554637      -0.00026501       1.98881800       27
O       -6.83386230       2.95942068       2.43667674      -0.81309000       53
Ti      -6.60187101       2.50665879       0.60369164       1.81521300       28
O       -2.76577759       3.01939011       0.19642696      -1.01975800       54
O       -0.67127275       4.34013844       0.29512829      -1.05955800       55
O       -4.88237333      -0.38320547      -0.21836239      -1.12446400       56
Ti      -7.56449890      -3.60692906       0.57373267       1.83806900       29
O       -7.38292408       0.89987153       0.21153763      -0.91435400       57
O       -7.86194420      -2.03140664      -0.02357461      -0.91605300       58
Ti       8.05701160       0.45284709       1.62363815       1.83956700       30
O        9.24810696      -0.67395961       0.52963436      -1.08353500       59
Ti       5.88799143      -1.05689061      -0.53803343       1.89682800       31
Ti       8.43745995      -2.39893103       0.02085941       1.81017600       32
O        9.35239315       1.19402933      -1.94508874      -0.92125200       60
O       11.73846626      -0.29936320      -1.03569281      -0.47605800       61
O        6.91801167      -1.36767244       1.23969758      -1.13107000       62
O        7.15550280       0.00277647      -1.06745517      -0.92427700       63
O        8.56605339      -3.22218037       1.73523974      -0.87996300       64
O        9.57773018      -2.34617782      -1.25866020      -0.83263600       65
Ti      10.21161556      -0.43019539      -1.18296063       1.68159400       33
O        8.35946751       1.97032702       0.53967345      -0.85650000       66
O        6.65179539      -2.85389328      -0.82625753      -1.12008800       67
O        4.68104696      -1.24194360      -1.88895547      -1.04287500       68
O        5.42413187      -3.07481432      -3.56909180      -0.82387500       69
O        4.00237226      -3.70331502      -0.11260074      -1.07304100       70
Ti       3.90253329      -2.09450603      -3.77700329       1.84533400       34
Ti       5.07820511      -3.81343675      -1.89688778       1.87285900       35
O        3.15758777      -3.24502373      -2.43596792      -1.07581900       71
O        1.63425088      -4.96257830      -1.22910011      -1.04781400       72
O        4.55364990      -5.39648342      -2.31162882      -0.84288500       73
Ti       2.57666445      -5.45981312      -2.78416848       1.79265800       36
O        2.92297482      -2.65844345      -5.07991982      -0.85535500       74
Ti       2.11374736      -3.14501286      -0.63536447       2.01125300       37
O        1.13874662      -4.67532921      -3.94522238      -1.09198300       75
O        1.79324436      -6.87392950      -3.05713129      -0.68441500       76
Ti      -0.19302937      -5.87613964      -3.11610126       1.82366800       38
O       -0.41738719      -6.69406033      -1.28854191      -0.79849900       77
O       -1.64210916      -6.06747150      -3.93944359      -0.76060800       78
Ti       7.90538740       1.75380719      -1.14911342       1.83358600       39
O        4.57333755       0.23737372       0.03974147      -1.08075100       79
O        1.97596693       4.32465029      -0.50192082      -1.06768800       80
Ti       4.69015217       3.27045584      -0.88882524       1.87048200       40
O        6.27544117       2.74219418      -1.44810271      -0.96938000       81
O        4.30634117       4.78642893      -1.64316368      -0.88373000       82
O        2.66204810       4.95595789      -4.36925268      -0.74997100       83
O        3.29718637       2.04191971      -1.40972304      -1.06516700       84
O        1.24978638       3.73766279      -2.76374269      -1.04604100       85
Ti       1.37652981       3.93024850      -4.63119698       1.86090300       41
Ti       1.34768105       2.52739024      -1.23111713       2.00940100       42
Ti       1.00923145      -2.80916429      -4.67350101       1.87189800       43
O        0.46680859      -2.32377648      -2.86197281      -0.98198200       86
O        2.12833428       2.08349514      -4.83422661      -0.87029500       87
O        2.32084417      -1.29687059      -0.47286552      -1.02511200       88
Ti       3.18231606       0.02338937      -1.51174617       1.99597300       44
Ti       1.49166536       0.68022346      -4.08298683       1.90471200       45
O        1.36294699       0.81621623      -2.09257865      -1.01772700       89
O        0.82578689      -0.75891536      -5.04337454      -1.05815900       90
O        3.09439349      -0.32050073      -3.41212249      -1.06096600       91
Ti      -1.41130602       0.63636249      -2.48110199       1.96094600       46
O       -1.78057206      -0.72656977      -3.91823912      -1.07805800       92
O       -0.97052580      -0.58070409      -1.35887146      -0.79898100       93
Ti      -1.14142752      -0.92363948      -5.72480249       1.84970500       47
Ti      -0.80055201      -2.45723701      -1.70065391       1.94217000       48
O       -0.39878419       1.47359264      -4.05534649      -1.13263100       94
O       -0.70104402       2.33432961      -1.58152044      -0.99215000       95
O       -1.26126111       0.60165131      -6.57657003      -0.91078300       96
O       -0.24601045      -2.86456895      -5.75316954      -0.76444900       97
O       -4.04190826      -5.55533552      -1.96627879      -0.94783900       98
Ti      -2.90801311      -4.71453905      -3.02596760       1.81256800       49
O       -1.07759118      -4.45396519      -2.15495062      -1.10425800       99
O       -2.76796556      -1.70817327      -5.91174984      -0.79355900      100
O       -3.67611670      -3.81671333      -4.24429321      -0.79373500      101
Ti      -3.39957261      -1.82919061      -4.17682838       1.86629500       50
O       -2.78710032      -2.60423255      -2.24117970      -1.16537700      102
O       -5.52753925      -2.24767876      -1.66033280      -0.61737300      103
O       -1.84988964       7.32908583      -0.06410443      -0.95263500      104
Ti       2.48525047       5.21401787      -2.23331499       1.82963400       51
Ti      -0.42319041       6.98807383      -1.09331846       1.88733200       52
O       -0.73044926       7.78970861      -2.63889575      -0.81913400      105
O        1.66418087       6.59009600      -1.96180820      -0.78817900      106
Ti      -1.24255633       6.26143360      -3.72549605       1.80246700       53
O       -0.04206766       5.45332289      -4.54625511      -0.80675800      107
O       -1.07868552       5.46159697      -2.00442171      -1.03057600      108
O       -4.32944489       5.71360826      -0.43828297      -0.94542200      109
O        0.05558594       3.29145169      -6.10559464      -0.80334000      110
O       -3.15047097       0.94197756      -1.99495506      -1.07277400      111
Ti      -5.18196964       4.24271774      -1.40918267       1.84401700       54
Ti      -1.65148067       3.74747252      -1.11925685       1.93655500       55
Ti      -3.75556016       4.15378809      -3.99415660       1.89885000       56
Ti      -1.15725148       2.24020672      -5.61179066       1.80331400       57
O       -5.49363327       4.69125175      -3.01099610      -0.72351500      112
O       -2.67174459       3.08650756      -5.00063992      -0.97410200      113
O       -3.23045492       3.85227728      -2.30793762      -1.03340900      114
O       -2.95381570       5.74433661      -4.25915432      -0.93388300      115
O       -5.05085659       2.21426272      -4.00086403      -0.71242500      116
O       -5.21582508       2.27150440      -1.21180844      -1.15605900      117
Ti      -5.03374243       1.07187343      -2.87705207       1.84769400       58
O       -4.53859425      -0.63749939      -3.82372093      -0.83435900      118
Ti      -6.77822685      -0.50410056      -0.77039158       1.85749800       59
O       -6.74433327       0.19536878      -2.31961823      -0.83463000      119
