246
Properties=species:S:1:pos:R:3:initial_charges:R:1:tags:I:1 pbc="F F F"
Ti       3.46787882      -4.18808126       1.39163506       2.04102600        0
O        2.71887517      -5.99676991       2.04942513      -0.97618500        0
O        3.21796346      -8.41119385       2.35167170      -0.88496900        1
Ti       6.69023800      -5.54240131       1.22819138       1.81658500        1
Ti       4.38002586      -7.24841738       1.48622942       1.82026000        2
O        4.96757889      -5.33221626       1.81173348      -1.00430300        2
O        6.19966793      -7.37886047       1.46729088      -0.88237100        3
O        7.35359192      -4.26867914       2.32993054      -0.91032800        4
O        3.90964770      -7.27885723      -0.28231841      -0.87303900        5
O        3.10460663      -4.61955547      -0.26541507      -0.87538900        6
O        4.11131239      -4.38921928       5.26848555      -0.77728200        7
Ti       3.38091326      -3.11313677       5.73677874       1.78576800        3
Ti       6.55970240      -2.60679770       2.32343125       1.84493000        4
O        7.55603790      -1.63829625       1.16635537      -0.90632700        8
O        4.80211067      -2.66079783       1.32966805      -1.13390800        9
O        6.43699884      -1.95890605       3.93737721      -0.87450900       10
O        1.92400086      -3.69005203       7.13336515      -0.81192100       11
Ti       4.34122610      -0.74006784       0.98765332       1.97296500        5
O        6.55286551      -4.80196428      -0.35801101      -0.92849700       12
Ti       3.25630450      -6.05637217      -1.42919171       1.89659700        6
Ti       5.81396532      -3.58656669      -1.65361929       1.95282700        7
O        4.13375139      -2.70382738      -1.67633820      -0.92006100       13
O        4.72434187      -5.44226885      -2.34973574      -1.03060200       14
Ti       4.06719542      -4.55317497      -4.03728819       1.87937500        8
O        4.07422829      -4.61189032      -5.79079485      -0.84131500       15
O        5.77108097      -3.51268005      -3.59086609      -1.07238600       16
Ti       2.86742997      -3.12294102      -6.22062492       1.86023800        9
O        5.86308670      -1.64328873      -5.63421106      -0.55361800       17
O        3.04693747      -2.93455625      -4.28975677      -1.06113500       18
O        2.53229022      -5.49691057      -3.41444921      -1.02708800       19
Ti       6.35528040      -1.73376286      -4.16095161       1.73814300       10
Ti       3.33530951      -1.59787083      -2.85787225       1.90472100       11
Ti       8.74056911       0.10436580      -2.89397883       1.79011100       12
O        8.17940426      -1.09957695      -3.98522806      -0.90579500       20
O        4.99458694      -0.65856439      -3.14065480      -1.07603100       21
O        6.88044119      -2.22502995      -1.48952866      -0.94232100       22
O        9.16813850      -0.63461137      -1.16240275      -0.84344100       23
O        5.41648006      -0.16479275      -0.44083986      -1.07467100       24
Ti       1.68980026      -7.39082050       2.47259474       1.83836900       13
Ti      -0.66950339      -6.14358234       4.26112366       1.90279700       14
Ti      -3.16255784      -6.61497831       1.89189410       1.89851300       15
O        0.64847261      -7.32770586       4.04156590      -0.91091300       25
O       -2.00427985      -6.73695278       0.46375117      -1.02256000       26
O       -2.23450971      -6.78427458       3.47461796      -0.97855700       27
O       -0.39773643      -5.01892233       5.68115759      -0.98917700       28
O        0.60613281      -7.52177000       1.02807164      -0.92637500       29
O       -0.13190162      -5.12356567       2.81558895      -0.90176200       30
Ti       0.17645378      -3.77426839       1.78847671       1.95003700       16
Ti      -0.26792085      -6.46489859      -0.19189602       1.96747700       17
O        0.08073453      -4.69834185       0.11445042      -1.02113100       31
O       -2.76013112      -3.52063656       4.15735722      -0.82340000       32
O       -1.61594391      -3.11854219       1.48103678      -1.03525500       33
Ti      -3.35011911      -3.18749690       0.65767497       1.98704800       18
O       -3.59074664      -4.86002159       1.81119788      -1.02408600       34
O        2.02220821      -3.41497850       2.11036110      -0.95445300       35
Ti       0.51179492      -3.47046089       6.24216604       1.82188500       19
Ti      -2.08593249      -2.26661992       3.17866302       1.89298400       20
O        1.56765461      -3.01090837       4.82408905      -1.01368900       36
O       -0.06096186      -2.22930050       2.98358750      -0.98869100       37
O        0.38536999      -1.88725388      -0.01980709      -0.92902600       38
O       -2.39441681      -0.39504197       2.24183941      -0.92954200       39
O       -1.73337805      -0.94723636       4.59548330      -1.00119700       40
Ti       1.68517649      -1.64953828       3.42323518       2.01629300       21
O        2.44451737      -1.01327574       1.61355782      -0.99384100       41
O       -3.22737002      -1.44364846      -0.17901738      -0.99763200       42
O        1.31864417      -6.53612995      -1.52130890      -1.07613400       43
O       -2.19613886      -3.84541631      -0.96526921      -1.04965900       44
O        3.06564474      -1.45978177      -6.81792355      -0.92919300       45
O       -1.07499826      -6.12162971      -2.08207202      -1.08372200       46
Ti      -0.48252016      -2.86956739      -1.19225287       1.92493400       22
Ti       0.67817408      -5.44492626      -2.98471665       1.94299800       23
Ti      -2.66542196      -5.15776300      -2.11083770       1.91513100       24
O       -2.74179745      -4.31134415      -3.67226505      -0.93922400       47
O        0.56141973      -3.74982834      -2.40033579      -0.88051300       48
Ti      -0.34507045      -4.00358057      -5.80589819       1.84894300       25
O       -0.05143523      -5.35905313      -4.70027542      -0.89891800       49
O       -0.22115818      -2.41898608      -4.83458948      -0.90154800       50
O       -2.00695729      -4.02816486      -6.38956261      -0.93331700       51
O       -2.81662846      -1.70964289      -4.97269297      -0.97635400       52
O        1.33594549      -3.75071812      -6.72667885      -0.90093900       53
Ti      -3.35471511      -3.36613631      -5.11309481       1.86002900       26
Ti       1.48726904      -0.20321849       0.19870877       2.00594900       27
O       -1.31787229      -1.57498896      -2.27809906      -1.03551700       54
Ti      -1.10512722      -1.04843247      -4.14949989       1.93424900       28
O        2.09409356      -0.81529605      -1.85611045      -0.97396700       55
Ti       2.87764001       0.23251459      -6.03511524       1.89361400       29
O        0.14101760       0.34101066      -3.83126020      -1.06834300       56
O       -1.49486291       0.31382680      -5.66357470      -1.00255100       57
O        1.28594744       1.04968536      -6.42093897      -0.94574100       58
O        2.70628929      -0.17330706      -4.34418201      -1.05025300       59
O       -2.78773236       0.21492064      -3.35011983      -0.99830100       60
Ti      -2.86703229      -0.30077726      -1.59979308       1.97383100       30
Ti       1.66338503       0.99168456      -2.81278872       1.96742800       31
Ti      -0.13506202       1.54699314      -5.38657665       1.87543300       32
O       -4.90164852      -7.22727680       1.68605340      -0.98011400       61
Ti      -4.53478432      -4.14017677       3.46831560       1.73495000       33
Ti      -7.48086834      -3.78711200       2.14346337       1.80873800       34
Ti      -6.54093075      -6.40869856       1.35355282       1.79097700       35
O       -5.03495979      -5.47087765       4.10753536      -0.55059400       62
O       -7.84600830      -5.54098368       2.45260239      -0.87375800       63
O       -6.87536192      -6.35988760      -0.37048537      -0.84268700       64
O       -8.80437946      -3.05228758       1.26198089      -0.89430100       65
O       -6.19944334      -2.95755363       3.45433998      -1.08392800       66
Ti      -5.86977959      -4.77624702      -0.97894901       1.87997800       36
O       -6.08507776      -4.62340212       1.12057126      -0.99354000       67
O       -4.93528652      -3.15657306      -0.36244124      -1.02533600       68
Ti      -8.42323399      -1.37408566       0.28919211       1.74371100       37
O       -3.96114945      -2.38459229       2.20888042      -1.04878100       69
O       -4.35112429      -5.59512424      -1.54901087      -0.93012600       70
O       -6.61673880      -1.86483824       1.17427623      -1.08549800       71
Ti      -5.74161339      -1.13325512       2.88142300       1.98833400       38
O       -8.89278316      -0.10306366       1.08907497      -0.62004000       72
O       -4.40630484      -0.42509753       4.08925247      -0.88987700       73
O       -7.06759548      -0.05739313       3.40196300      -0.89862100       74
Ti      -5.35614538      -1.20561552      -0.18474013       1.95370100       39
O       -5.09657669       0.02140994       1.35920203      -1.00894500       75
Ti      -5.89639235      -2.35497308      -3.34359264       1.85308900       40
O       -6.58909845      -3.80809808      -2.25788760      -0.91159200       76
O       -5.10298347      -3.24215794      -4.83624268      -0.90405100       77
O       -7.15158796      -1.07277250      -3.64745188      -1.00997100       78
O       -4.72149706      -1.56927252      -2.37013674      -0.89615700       79
O       -9.34086227      -0.86125481      -1.57295799      -0.76803700       80
O       -6.94568825      -0.69692445      -0.96121216      -1.04555700       81
O       -5.12391090      -0.15171582      -5.40594196      -0.91173000       82
Ti      -8.14319324       0.02264973      -2.33724642       1.83620200       41
Ti      -6.74464607       0.91332245      -4.78760910       1.82441500       42
Ti      -3.52753448       0.39602235      -5.06079769       1.89639500       43
O       -8.32101727       1.07387292      -4.00430155      -0.88506800       83
O       -5.75693417       1.57725167      -3.33255291      -0.94888400       84
O       -4.48597336       0.68580025      -0.90830064      -0.94740700       85
O       -6.41316366       2.42604327      -5.71386337      -0.86503200       86
O        3.56021500      -1.80685425       4.04863787      -1.00986100       87
O        4.73588943      -1.68684173       6.22134638      -0.82414800       88
Ti       5.00734568      -0.92162961       4.72119284       1.87969800       44
O        5.36418486      -0.22430025       2.31165504      -0.96249600       89
Ti       6.51936865       1.37840891       2.14743781       1.82487700       45
O        4.55261612       0.93571115       4.78804588      -0.95554700       90
O        7.44761038       1.47618961       3.79000974      -0.89689300       91
Ti       7.18739128       3.19417548       4.32717657       1.73934500       46
O        5.73344326       3.33102036       5.22814417      -0.85307800       92
O        8.06363297       4.81793642       3.70458031      -0.88916700       93
Ti       3.94626689       2.59787750       4.72461128       1.92305600       47
O        6.44478893       3.37578392       2.58196282      -0.98267400       94
Ti       3.90570903       5.50892115       2.45623755       1.81314100       48
O        5.62481165       6.14319134       2.54010773      -0.92429600       95
Ti       7.07652760       5.08126450       2.23811269       1.81821100       49
O        4.65051651       2.11196518       1.58575916      -0.74659900       96
Ti       7.56940031      -0.69062972      -0.39167044       1.90982100       50
O        4.27819395       1.44811857      -6.17771435      -0.95940200       97
O        7.51539040       1.05655706       0.87199128      -0.73799500       98
O        7.25445557       0.63450676      -2.06004739      -1.04425300       99
Ti       5.18867445       0.97589147      -2.08894420       1.99598300       51
Ti       7.57723331       2.82454205      -3.88583183       1.81411800       52
Ti       5.08362961       2.77149320      -5.27574778       1.83983400       53
O        8.96078205       1.70432031      -3.87689567      -0.91434700      100
O        5.83879662       2.03043079      -3.70815563      -1.04639000      101
O        6.85560036       3.37459636      -5.46636534      -0.86431900      102
O        3.55253458       1.54759371      -2.29449487      -0.94905200      103
Ti       3.84028816       2.58875680       0.26495835       1.89900800       54
O        3.13426542       0.67671907       0.11233493      -0.88624200      104
O        5.45188713       2.76994634      -0.89271098      -1.07150100      105
O        7.50847769       4.76831007       0.46545091      -0.96156700      106
Ti       6.60011435       4.26668644      -1.02155733       1.88138600       55
O        5.52480316       5.69601107      -1.37566829      -0.87775500      107
O        7.61992741       3.97635531      -2.47011757      -0.92083600      108
O        4.09656477       4.68352032       0.70857483      -1.09424200      109
O        3.90200043       3.98945522      -4.78735924      -0.93462400      110
O       -0.12991656      -1.62396395       6.63328743      -0.87411800      111
Ti      -0.31199279      -0.18119656       5.71788359       1.94685400       56
O        1.03487408      -0.30162650       4.42735529      -1.02109000      112
O       -1.32901907       1.64006209       3.00939655      -1.02014400      113
O       -1.87040353       1.23630095       5.53786230      -0.98426900      114
Ti      -1.54371452       0.88549000       1.40312481       1.93885400       57
O        0.43367109       0.69092596       1.39046371      -1.09988500      115
Ti      -2.89082837       0.46523464       4.02566767       1.87507000       58
Ti       1.03846848       2.33366966       2.59291363       1.92923400       59
O        2.48544931       1.99417806       3.24985647      -0.70990700      116
O        3.74945521       4.32319736       3.57663131      -0.80892200      117
Ti       0.86937672       2.92205453       6.13486528       1.86032400       60
Ti      -1.63641810       2.94841433       4.74762535       1.87572100       61
O        0.54611564       1.38182116       6.74203253      -0.77827900      118
O       -1.00052404       3.75278187       6.12835455      -0.79425700      119
O        0.30337784       2.62496233       4.43244505      -0.99825100      120
O        1.18954206       5.26804590       5.02949715      -0.74183300      121
O        2.78478479       2.93196082       5.97220087      -0.85994900      122
Ti       0.73362023       5.78671932       3.59997869       1.82622200       62
O       -1.05968511       6.53698063       3.79320359      -0.94829600      123
O        0.84694827       4.30702925       2.42898870      -1.10270800      124
O       -1.99961627       4.18014145       3.13616276      -1.05710300      125
Ti      -2.73921704       6.10688114       3.46218467       1.87985300       63
Ti       3.81730056       5.77472639      -0.80948472       1.87024000       64
O       -1.75974357       0.85478032      -0.71505713      -1.05352400      126
O        0.73096955       1.39697671      -1.37862504      -1.02471900      127
Ti      -1.03190815       2.54238915      -1.55280459       1.90694800       65
O        1.49836111       2.51620626      -3.90532351      -0.93944100      128
O       -1.00614035       3.06747365      -5.75557852      -0.89492000      129
O       -1.42423761       2.76903939      -3.13577962      -0.76796800      130
O       -0.70618284       2.94469690       0.78624350      -1.04782100      131
Ti      -2.36279392       3.96914697      -4.82397175       1.88975000       66
O        2.29394794       6.70898390       2.57400441      -1.17250100      132
Ti      -2.14795876       3.92795110       1.29951060       2.00769400       67
O        1.95971370       2.98045039       0.68349534      -0.87437100      133
O        3.08450365       4.54755878      -1.96759093      -0.97726900      134
Ti       1.91737282       7.43579817       0.83441442       1.79765600       68
Ti      -1.17782152       7.05077696      -0.34606534       1.91865300       69
Ti       0.75819391       4.29127026       0.31067157       1.94609700       70
O        3.45868278       7.51549244      -0.16249065      -0.90523100      135
O        1.77931702       5.77469063       0.07515219      -1.00132300      136
O        0.31995115       8.04259300       0.51975465      -0.88404200      137
O       -0.90120482       5.51309443       0.67167938      -1.01175300      138
Ti       2.43794179       4.10679865      -3.62726569       1.86576800       71
Ti      -0.29427892       5.64416838      -2.83736324       1.87496800       72
O        0.12429896       4.19298077      -1.52780437      -1.08291200      139
O       -1.54225421       5.38394976      -4.32438183      -0.79364100      140
O        0.01413888       7.09791851      -2.03876686      -0.76055200      141
O        1.27845252       5.34568310      -3.91951966      -0.84657600      142
O       -2.08961987       5.94250774      -1.76894701      -1.03865600      143
O       -3.16056824       2.13835621       1.27817357      -1.01927000      144
O       -6.73433447       1.92213917       1.27318633      -0.97701700      145
Ti      -7.50091839       1.71186936       2.99273992       1.84924800       73
O       -3.67133713       2.39627385       4.20375252      -1.00439200      146
Ti      -4.77920389       1.75507784       0.50251418       1.98823900       74
O       -8.95727444       2.43996811       2.14966559      -0.84939600      147
Ti      -8.23644161       2.62567377       0.44003385       1.84973300       75
O       -6.57966995       2.87637472       3.96266413      -0.93432200      148
O       -5.03190327       3.84582710       1.88586342      -1.03261000      149
Ti      -4.84957838       3.64210677       3.73543930       1.88188900       76
O       -4.12698174       5.17304182       4.38327551      -0.94484500      150
O       -3.66610765       7.72463274       2.83269882      -0.79460500      151
O       -3.18947244       5.69487429       1.62791681      -0.97469700      152
O       -5.87719679       6.51834249       1.42087483      -0.87295700      153
O       -8.00678253       1.88645434      -1.32995617      -1.16288700      154
O       -3.65974307       2.19071746      -5.11142349      -0.97319100      155
Ti      -6.47723866       2.80304718      -2.19524813       1.76697000       77
O       -5.37734127       3.21596932      -0.71683389      -1.13009400      156
Ti      -5.12553787       3.46360373      -4.81230211       1.83563300       78
O       -6.50717402       4.07339907      -3.29983974      -0.81051300      157
O       -4.08890390       4.51281357      -5.73084021      -0.74976900      158
O       -2.57069445       3.60414195      -0.73717809      -1.03191400      159
O       -7.67983198       4.28006124       0.26224226      -0.89920500      160
Ti      -4.08343077       7.22630262       1.22526908       1.84706200       79
Ti      -5.89794064       4.94551039       0.61539620       1.88974000       80
O       -3.81520486       4.07020855      -3.30415583      -1.05653600      161
O       -2.64722466       7.88515186       0.12242795      -0.90637400      162
Ti      -3.52658606       4.81227970      -1.69365144       1.90563000       81
O       -4.71177387       5.74178886      -0.61130321      -0.99380000      163
