246
Properties=species:S:1:pos:R:3:initial_charges:R:1:tags:I:1 pbc="F F F"
Ti      10.94490147       1.98158348      -2.42023492       1.84089400        0
Ti       7.36453152       1.90827203      -2.47746634       1.90268600        1
Ti       3.60008836       1.88083518      -2.50249052       1.93432400        2
Ti      -0.03953245       1.89474630      -2.51117158       1.92230800        3
Ti      -3.76761222       1.89234936      -2.45803976       1.90612600        4
Ti      -7.49164820       1.86548674      -2.47192740       1.91260400        5
Ti     -11.31899261       1.91958785      -2.43953800       1.91155200        6
Ti      11.71335506      -1.25531411      -0.61350411       1.77261200        7
Ti       7.45980024      -1.32566500      -0.58575451       1.91640000        8
Ti       3.81055474      -1.36069608      -0.60031557       1.98887300        9
Ti      -0.03650467      -1.34638667      -0.55729812       1.98057700       10
Ti      -3.74357700      -1.33090615      -0.58726180       1.96839800       11
Ti      -7.55038881      -1.33971381      -0.62375778       1.94247600       12
Ti     -11.14630508      -1.37512839      -0.51902205       1.87198700       13
Ti      11.09690857      -4.54031849       1.09281325       1.74861500       14
Ti       7.40810728      -4.53843975       1.35954988       1.86825200       15
Ti       3.53129244      -4.51642370       1.32100344       1.87577900       16
Ti      -0.06677760      -4.55419111       1.29915750       1.92214900       17
Ti      -3.64252591      -4.42631674       1.29041958       1.86743900       18
Ti      -7.50195026      -4.55305958       1.30865753       1.85679400       19
Ti     -10.99982071      -4.25566769       1.31690824       1.70973800       20
Ti       9.25850487       5.15632439       0.58358961       1.73339000       21
Ti       5.57666969       5.33157110       0.78206462       1.81406600       22
Ti       1.83375454       5.12365580       0.89268142       1.62216900       23
Ti      -1.90289593       5.19371843       0.87050503       1.72068800       24
Ti      -5.54139757       5.59688616       0.76574546       1.73476800       25
Ti      -9.32405281       5.63442945       0.55330801       1.81824300       26
Ti      12.95555782       2.72777724       2.15561748       1.62496000       27
Ti       9.42649364       2.55161643       2.34658623       1.77416800       28
Ti       5.52348375       2.36207557       2.60737252       1.84334300       29
Ti       1.85634804       2.73735595       2.29436326       1.80583500       30
Ti      -1.88224483       2.65450692       2.51788831       1.83932300       31
Ti      -5.73376989       2.57524610       2.53128386       1.87004300       32
Ti      -9.24776077       2.72605085       2.34461141       1.91000900       33
Ti     -12.74549580       3.56724811       1.61920440       1.67577500       34
Ti       9.13044548      -0.34527725       4.02406502       1.78874100       35
Ti       5.36557913      -0.03649526       4.08053207       1.58226000       36
Ti       1.75391066      -0.14445196       4.01735449       1.84966500       37
Ti      -1.92097807      -0.11401975       4.12810087       1.73897900       38
Ti      -5.51552391      -0.10285277       4.08553314       1.78808500       39
Ti      -9.34883022      -0.09303134       4.09784555       1.80162000       40
Ti       9.43698311       0.30718592      -4.04836941       1.77492600       41
Ti       5.55889463       0.13354783      -4.00776529       1.70645100       42
Ti       1.84751475       0.08667157      -3.98509693       1.75116500       43
Ti      -1.86728799       0.12974362      -3.89823961       1.85134600       44
Ti      -5.51987743       0.08085180      -4.16532755       1.69221200       45
Ti      -9.51105690       0.35851464      -4.09473944       1.74969300       46
Ti      12.92068577      -3.23857951      -1.57753301       1.61573900       47
Ti       9.28320885      -2.56161451      -2.46707010       1.92163900       48
Ti       5.74815893      -2.53665161      -2.55103087       1.88305400       49
Ti       1.80508840      -2.65582252      -2.52646112       1.88304500       50
Ti      -1.96081007      -2.67678547      -2.42506886       1.84103500       51
Ti      -5.64608240      -2.43051147      -2.62115455       1.83051500       52
Ti      -9.55505371      -2.78077340      -2.34559703       1.69585700       53
Ti     -12.53346920      -3.98930383      -1.42226470       1.61281600       54
Ti       9.27773380      -5.38769579      -0.63060707       1.73255300       55
Ti       5.51290369      -5.27339315      -0.72161835       1.71491200       56
Ti       1.82928872      -5.34511042      -0.90100634       1.72371500       57
Ti      -1.88242280      -5.36958075      -0.92564607       1.59861700       58
Ti      -5.58276749      -5.31902933      -0.82329291       1.75287600       59
Ti      -9.11115456      -5.11627483      -0.94286054       1.53896700       60
Ti      11.28804970       4.76895952      -1.58058929       1.66293100       61
Ti       7.36142778       4.37995529      -1.45898783       1.80349100       62
Ti       3.65553141       4.54969931      -1.29509020       1.88088100       63
Ti      -0.04965142       4.37741613      -1.29546678       1.85255300       64
Ti      -3.70664001       4.57442093      -1.35006213       1.88846700       65
Ti      -7.32845306       4.40779638      -1.30916417       1.81905300       66
Ti     -11.01487637       4.45888186      -1.15996969       1.79823800       67
Ti      11.26452541       1.44428790       0.39333189       1.83365000       68
Ti       7.56263113       1.28411973       0.51116532       1.92758400       69
Ti       3.62780690       1.31725895       0.53349996       1.95847500       70
Ti      -0.03651116       1.32095790       0.51868623       1.97951900       71
Ti      -3.70002747       1.32240438       0.58565664       1.98495800       72
Ti      -7.55898619       1.34208560       0.53703207       1.93447200       73
Ti     -11.28994942       1.31253433       0.63136005       1.83053300       74
Ti      11.45743942      -1.98646903       2.30800200       1.83509600       75
Ti       7.35226679      -1.92797863       2.43404675       1.89815800       76
Ti       3.77513409      -1.85789216       2.43127918       1.91814300       77
Ti      -0.04824360      -1.95656085       2.45495009       1.91307700       78
Ti      -3.66470003      -1.90923488       2.47312260       1.92138800       79
Ti      -7.59818983      -1.82025635       2.41593575       1.92754800       80
Ti     -10.95415592      -1.79241645       2.60479331       1.81892900       81
O       10.86797523       1.03205776      -4.13927031      -0.72085400        0
O        7.52430439       0.73341018      -4.06045818      -1.12293900        1
O        3.70625472       0.52717197      -3.93992472      -1.02363600        2
O       -0.08571480       0.67252702      -4.12315607      -1.06509500        3
O       -3.61934495       0.63554651      -4.13284349      -1.08499100        4
O       -7.47543240       0.76086080      -4.16804361      -1.08174600        5
O       -9.51029968      -1.20692456      -5.20593023      -0.34896900        6
O       11.25901794      -2.71082830      -2.10098529      -1.06835100        7
O        7.58472013      -2.39587426      -2.23597503      -1.01938100        8
O        3.65059972      -2.40260077      -2.20018649      -1.04886200        9
O       -0.04505222      -2.41952372      -2.16100383      -1.06311100       10
O       -3.86083984      -2.28908968      -2.19433546      -1.07692200       11
O       -7.58806038      -2.33668041      -2.27156353      -1.01024800       12
O      -11.58938599      -2.53732204      -1.99316669      -1.03590600       13
O       10.77609921      -5.99473953      -0.09100870      -0.77281100       14
O        7.47181320      -5.77041388      -0.18555512      -1.10526900       15
O        3.60131741      -5.29899502      -0.41768318      -1.12078800       16
O       -0.06416904      -5.27646732      -0.48916689      -1.17950700       17
O       -3.83455706      -5.44849062      -0.43345189      -1.16144500       18
O       -7.58377552      -5.64998770      -0.41503704      -1.07008500       19
O      -11.43745518      -5.16986561      -0.61193967      -0.73009300       20
O       11.23201180       6.22249222      -2.26742721      -0.50415400       21
O        9.10694504       4.92733431      -1.24809957      -0.98170600       22
O        5.48529005       4.82469082      -1.12402880      -1.06717200       23
O        1.75341344       5.10358715      -1.14704430      -1.07631200       24
O       -1.83465898       5.10307264      -1.17435539      -1.07349800       25
O       -5.59567261       5.10267878      -1.19908953      -1.05469800       26
O       -9.23937035       4.07577133      -0.77095509      -0.95079100       27
O      -12.63093662       4.78865528       0.02935540      -0.52569300       28
O       13.07139683       1.76970840       0.66166025      -0.77481900       29
O        9.24226379       1.51110876       0.76849753      -1.04489800       30
O        5.46367121       1.51949728       0.80827945      -1.00147300       31
O        1.82387877       1.56384015       0.82809007      -1.06718800       32
O       -1.85383165       1.64314079       0.85837275      -1.04996000       33
O       -5.60336351       1.51176977       0.97792149      -0.97150800       34
O       -9.31795216       1.48324740       0.87288636      -1.03356400       35
O      -12.87503719       1.93625760       0.70650405      -0.78175800       36
O       12.43699932      -1.22578800       3.71558261      -0.33119500       37
O        9.12775421      -1.50014925       2.53586411      -0.89130000       38
O        5.41776466      -1.66201675       2.83666372      -1.02803200       39
O        1.78931916      -1.48107195       2.72942924      -1.01417600       40
O       -1.89031565      -1.67111278       2.84894156      -1.07877900       41
O       -5.51888132      -1.63775563       2.81629109      -0.98493800       42
O       -9.30458450      -1.22473586       2.55262637      -1.05740700       43
O      -11.30319118      -0.30518126       3.82813907      -0.45967000       44
O       14.36582947       3.97956514       2.86703014      -0.46007800       45
O        8.91451550       4.32468176       2.07031679      -0.87445600       46
O        5.75460768       4.20964479       2.09097505      -0.84376900       47
O        1.81408572       4.58872318       2.60247517      -0.87271000       48
O       -1.94897580       4.36818886       2.52339292      -0.84306400       49
O       -5.66829443       4.31409073       2.26074886      -0.88737400       50
O       -9.08433056       4.54305124       2.09840965      -0.90958400       51
O      -11.45996189       4.84269094       0.93946177      -0.63553400       52
O       14.17463303       2.71961951       3.66886449      -0.43856400       53
O        9.50168514       1.41961050       3.86621332      -0.87431300       54
O        5.42673063       1.71903515       4.31553602      -0.89496700       55
O        1.74324358       1.58136737       3.84678555      -0.81681400       56
O       -1.83471966       1.66577065       4.14630270      -0.87596000       57
O       -5.50760365       1.64046526       4.14984894      -0.87810400       58
O       -9.21636868       1.65329146       4.02297211      -0.81735400       59
O      -13.80283260       4.19634199       2.65476680      -0.56464300       60
O       10.63071060       3.79650545      -3.23004818      -0.44433300       61
O        7.37241745       3.64515591      -3.04056358      -0.74640800       62
O        3.49952865       3.67288256      -2.92948532      -0.80243600       63
O       -0.09641968       3.75272274      -2.98426938      -0.79045100       64
O       -3.71689653       3.67652512      -2.94125867      -0.79639300       65
O       -7.44397068       3.74713469      -2.87934804      -0.77661700       66
O      -11.53975868       3.76748109      -2.74334741      -0.84328300       67
O       11.35890579       0.50046319      -1.31771958      -1.03627700       68
O        7.26628065       0.43372205      -1.19117689      -1.03140300       69
O        3.59140491       0.40812930      -1.19572425      -1.03218000       70
O        0.00735188       0.43370178      -1.18221867      -1.04001100       71
O       -3.75575519       0.45634237      -1.13150370      -1.03640600       72
O       -7.47204542       0.44943729      -1.15436840      -1.00426700       73
O      -11.44219494       0.39016116      -1.17302585      -1.05319400       74
O       10.99710083      -2.76493859       0.56591839      -1.01363800       75
O        7.18926620      -2.79872441       0.68406910      -0.97180400       76
O        3.63379860      -2.86758184       0.67035002      -0.96836100       77
O       -0.03812355      -2.78286529       0.71068591      -0.99104600       78
O       -3.86595201      -2.80715108       0.70830578      -0.94649800       79
O       -7.45673418      -2.71715426       0.68710107      -1.01837200       80
O      -10.96525669      -2.59839940       0.83402431      -1.01652300       81
O       11.01178074       5.39336634       0.31959048      -0.83759000       82
O        7.15372610       5.72959328       0.27154076      -1.00192400       83
O        3.61373758       5.53126335       0.42744040      -1.17612700       84
O       -0.05205028       5.21547270       0.50201565      -1.15835300       85
O       -3.75057936       5.60302496       0.41748548      -1.19459600       86
O       -7.45867395       5.78087568       0.24437670      -1.14189000       87
O      -10.47761631       6.26613569      -0.79658550      -0.85318700       88
O       11.52319527       2.51173067       2.19121480      -0.85733200       89
O        7.44761658       2.19106030       2.21725893      -1.02469700       90
O        3.69910455       2.33260918       2.19430089      -1.08486300       91
O       -0.02100408       2.48466325       2.12263942      -1.06705600       92
O       -3.70023060       2.36865187       2.25858092      -1.04247800       93
O       -7.60408783       2.38810182       2.16014552      -1.03409800       94
O      -11.25090790       2.45418239       2.22243476      -1.05472900       95
O       10.90248299      -0.96667272       4.06813526      -0.65317200       96
O        7.55445194      -0.70535171       4.00845480      -0.97014000       97
O        3.64212203      -0.62972116       4.10718107      -1.10979600       98
O       -0.00388243      -0.67986345       4.18625116      -1.10340400       99
O       -3.76309466      -0.51981282       3.89533567      -1.08346500      100
O       -7.52513552      -0.64472413       4.22049284      -1.08810200      101
O      -10.64415836      -1.46996117       4.61250782      -0.51539500      102
O       12.00699234       3.66529322      -2.99956203      -0.49688700      103
O        9.28522778       1.46168232      -2.49712586      -0.97123400      104
O        5.37836838       1.65451181      -2.94301057      -1.03134700      105
O        1.80084467       1.62595904      -2.94157696      -1.06290100      106
O       -1.89104402       1.52159035      -2.68764424      -1.03347500      107
O       -5.43782759       1.71631670      -2.92138815      -0.99611200      108
O       -9.28131104       1.54168320      -2.47451925      -0.95865300      109
O      -10.84053516       1.12224722      -4.02259350      -0.74701100      110
O       13.24623871      -1.62533271      -0.73487502      -0.68812500      111
O        9.22368622      -1.47299218      -0.92254007      -0.88016300      112
O        5.64102173      -1.58368075      -0.95475918      -1.04629600      113
O        1.84823465      -1.64419496      -0.87641883      -1.01923600      114
O       -1.88926709      -1.51422417      -0.85447848      -1.06837000      115
O       -5.60907841      -1.58336759      -0.88387078      -0.98746100      116
O       -9.51116943      -1.37768352      -0.98983949      -1.04713900      117
O      -13.19901276      -2.36391282      -0.22501065      -0.45463900      118
O       12.88852882      -5.16161633       1.12326515      -0.31552500      119
O        9.13699055      -4.63912058       1.04530203      -1.01294400      120
O        5.49552774      -4.99271917       1.17561424      -1.10518300      121
O        1.70136607      -5.16638756       1.14945650      -1.07027500      122
O       -1.91588616      -5.04168081       1.12604070      -1.09530500      123
O       -5.64882708      -4.88767481       1.08072150      -1.06942300      124
O       -9.16184139      -5.03046656       1.07674181      -1.08391500      125
O      -11.67952251      -5.86490583       0.60837966      -0.34898100      126
O       14.03353882      -3.56719327      -2.71787763      -0.54145400      127
O        9.69949150      -1.47692394      -3.87311435      -0.88805000      128
O        5.66500807      -1.68826687      -4.15619421      -0.91348500      129
O        1.73704648      -1.73888290      -4.17033243      -0.91178900      130
O       -1.83868766      -1.62728417      -3.83661819      -0.83456200      131
O       -5.71335888      -1.65698957      -4.32947969      -0.89009700      132
O       -9.28080368      -1.48581576      -3.71845913      -0.62471700      133
O      -13.53616905      -4.55545473      -2.49657130      -0.53321800      134
O       12.64483833      -4.51641893      -0.13592462      -0.62225200      135
O        9.05298519      -4.35954189      -2.06227303      -0.91160400      136
O        5.71216536      -4.35964155      -2.21861172      -0.90122900      137
O        1.84238017      -4.46521425      -2.51105165      -0.88148500      138
O       -1.91506541      -4.52522564      -2.54971337      -0.88928400      139
O       -5.67843533      -4.13716698      -2.30743885      -0.87381500      140
O       -9.38797855      -4.64010477      -2.70266342      -0.88719700      141
O      -12.73463726      -3.71149278       0.51639646      -0.54299000      142
O       11.21298790       2.91383243      -0.76391119      -1.07460800      143
O        7.24393845       2.86287355      -0.71026462      -0.94571300      144
O        3.69769859       2.77500629      -0.75396144      -0.99764000      145
O       -0.04744855       2.78156471      -0.75221872      -0.98253300      146
O       -3.77176166       2.85872078      -0.69408047      -0.98413800      147
O       -6.89995813       2.71205831      -0.72374791      -0.92023500      148
O      -10.91856861       2.66602993      -0.65513384      -0.92553600      149
O       11.58128357      -0.36427960       1.10998738      -1.06268900      150
O        7.30512381      -0.45686540       1.09944618      -0.98203200      151
O        3.70088887      -0.46928340       1.08301640      -1.03258600      152
O       -0.08783067      -0.42995042       1.14316535      -1.02688300      153
O       -3.80887604      -0.42981467       1.14685118      -0.99011600      154
O       -7.12273788      -0.41526258       1.15607142      -0.95213400      155
O      -11.83264065      -0.49355215       1.21123111      -0.89845700      156
O       11.36471272      -3.75933647       2.79877162      -0.79767500      157
O        7.34670353      -3.68062806       2.93037462      -0.79497400      158
O        3.41803980      -3.72026801       2.97050786      -0.83110600      159
O       -0.00225561      -3.61738968       2.96073103      -0.79348100      160
O       -3.81491089      -3.67502737       2.94728494      -0.79468500      161
O       -7.57181978      -3.66039610       2.89191985      -0.82432200      162
O      -11.69937611      -3.59176159       2.94301653      -0.75033200      163
