246
Properties=species:S:1:pos:R:3:initial_charges:R:1:tags:I:1 pbc="F F F"
Ti      -7.31008768       5.80448914       2.45422268       1.81434200        0
Ti      -3.71049881       5.83130169       2.28345180       1.89750500        1
Ti      -0.01834252       5.88667583       2.17928123       1.88130200        2
Ti       3.71297956       5.82308197       2.23250961       1.87345300        3
Ti       7.36333990       5.66163206       2.24304605       1.84595800        4
Ti      -3.84475780       3.74428439      -0.95259923       1.96745500        5
Ti      -3.51612306      -4.65554810       3.93147588       1.86843300        6
Ti      -0.18439707       3.78454971      -1.00599372       1.97437400        7
Ti      -0.00535325      -4.63942003       4.04216766       1.89721700        8
Ti       3.42947507       3.76049662      -0.96900952       1.96217200        9
Ti       3.49578381      -4.44318151       4.17322731       1.84483100       10
Ti       7.07459497       3.76542830      -1.06993389       1.86357100       11
Ti      -7.15300226       2.39248228      -4.02715540       1.83676100       12
Ti      -6.78128719      -6.63812160       0.35953441       1.76359100       13
Ti      -3.64770198       1.74375463      -4.19370365       1.86727100       14
Ti      -3.44613194      -6.84617519       0.44965491       1.88897700       15
Ti      -0.02429392       1.80939317      -4.29448986       1.87575500       16
Ti       0.04696680      -6.88125849       0.46401757       1.88870800       17
Ti       3.57864738       1.80355752      -4.25409746       1.83662500       18
Ti       3.51607180      -6.79201603       0.40361804       1.85877000       19
Ti       7.11830187       2.37492871      -4.08533096       1.85505200       20
Ti       6.83971834      -6.46983528       0.36389109       1.71789000       21
Ti      -8.93562412       3.39970231       2.62470388       1.83926300       22
Ti      -5.38848686       3.35298729       3.35981727       1.89779700       23
Ti      -1.78407121       3.51409793       3.36018968       1.90496100       24
Ti       1.80884111       3.55552244       3.36670995       1.90570900       25
Ti       5.39155340       3.39666247       3.31415081       1.88640000       26
Ti       9.07156658       3.33144188       2.83263850       1.82419200       27
Ti      -9.05175304       1.24227667      -0.02978742       1.69206200       28
Ti      -5.45388222       1.40484488       0.11567614       2.00853700       29
Ti      -1.82414138       1.36117435       0.10636462       1.97777000       30
Ti       1.79884160       1.38385165       0.08385226       1.96390400       31
Ti       5.42224407       1.31473160       0.07708842       1.95065600       32
Ti      -8.93710232      -0.21506087      -3.31028676       1.82017000       33
Ti      -5.48197222      -0.60875082      -3.21182537       1.96095000       34
Ti      -1.84764099      -0.69755304      -3.35994363       1.94723400       35
Ti       1.72951293      -0.64711010      -3.32880712       1.94592500       36
Ti       5.37049866      -0.50111979      -3.12770295       1.96670300       37
Ti       8.94828510      -0.09605904      -3.32289314       1.81033000       38
Ti      -8.94341660       0.20755011       3.17823815       1.81803100       39
Ti      -5.37384605       0.52946115       3.17181659       1.95448500       40
Ti      -1.75622308       0.68408322       3.29272151       1.93562100       41
Ti       1.78820193       0.73165303       3.29621172       1.91986100       42
Ti       5.49571705       0.58941782       3.17534685       1.95644200       43
Ti       8.98451996       0.14801614       3.28503060       1.83211900       44
Ti      -5.37238026      -1.50192022      -0.12846713       1.97559500       45
Ti      -1.74606168      -1.49545872      -0.20000562       1.96297200       46
Ti       1.92819023      -1.46429932      -0.20917928       1.94651200       47
Ti       5.61198664      -1.67734575      -0.06569883       1.85810500       48
Ti       9.27137661      -1.20277154      -0.15250152       1.71182700       49
Ti      -9.05457783      -3.36550832      -2.90591860       1.82256600       50
Ti      -5.38766050      -3.43867230      -3.36457920       1.89276900       51
Ti      -1.79693711      -3.54234433      -3.41863370       1.91137300       52
Ti       1.82245970      -3.48564982      -3.41855001       1.90188400       53
Ti       5.46716690      -3.33457589      -3.34034491       1.87338000       54
Ti       9.13185692      -3.27999473      -2.85956359       1.83596400       55
Ti      -6.89765358       6.52676105      -0.21417063       1.68512200       56
Ti      -7.15521049      -2.32576990       4.07576704       1.85768000       57
Ti      -3.56745410       6.73476505      -0.47877634       1.88504300       58
Ti      -3.58550739      -1.79999149       4.24787092       1.84301700       59
Ti      -0.06820156       6.81774092      -0.54449558       1.90268800       60
Ti      -0.01220916      -1.77533150       4.31134605       1.90079700       61
Ti       3.44061875       6.76468277      -0.51751482       1.89616200       62
Ti       3.56745529      -1.63150620       4.18665504       1.92944400       63
Ti       6.77444124       6.59696484      -0.38737190       1.76138900       64
Ti       7.12345695      -2.31896901       4.12944365       1.85802700       65
Ti      -7.10932636      -3.82851911       1.09274268       1.88348000       66
Ti      -3.52235031       4.56981945      -3.86069322       1.88868100       67
Ti      -3.48805022      -3.86594939       1.05191314       1.98444100       68
Ti      -0.01955133       4.67378616      -3.90736532       1.92437200       69
Ti       0.04306010      -3.85922956       1.09883237       1.98573900       70
Ti       3.47771335       4.65097284      -3.84912038       1.88170500       71
Ti       3.56851196      -3.84691048       1.09308958       1.94428400       72
Ti      -7.35901976      -5.71059656      -2.26842809       1.84760100       73
Ti      -3.68380523      -5.81584835      -2.24729276       1.89645600       74
Ti       0.05626435      -5.82904196      -2.19310212       1.90690000       75
Ti       3.76514173      -5.73693132      -2.27478290       1.92330800       76
Ti       7.44048023      -5.64023066      -2.29776978       1.84000200       77
O       -7.48757172       7.26422739       1.47635889      -0.84656500        0
O       -3.58515549       7.32754564       1.38582110      -0.80546300        1
O        0.00726615       7.40427494       1.38684988      -0.76105600        2
O        3.62255120       7.32422876       1.44274414      -0.76344700        3
O        7.53028011       7.16880131       1.21909523      -0.87393400        4
O       -8.00343895       5.84966993      -1.23909688      -0.75145100        5
O       -7.82138157      -2.90198326       2.51515269      -0.93733300        6
O       -3.59486318       5.32742786      -2.01817489      -1.04915100        7
O       -3.29436827      -3.07467842       2.90771031      -0.98167300        8
O       -0.02256439       5.39600992      -2.04126120      -1.04067700        9
O        0.02195764      -3.03106165       2.92470789      -1.01325100       10
O        3.49663401       5.40674591      -2.05443001      -1.04089500       11
O        3.36674142      -2.91835904       2.95391679      -0.94265500       12
O        7.51800013       5.60581970      -1.63034785      -0.83899400       13
O        7.65554571      -2.85683799       2.59348822      -0.92918700       14
O       -6.29000807       3.85551214      -4.96679068      -0.49250000       15
O       -6.79170036      -4.97675753      -0.60136700      -1.01191400       16
O       -3.57810354       3.04544449      -5.26112509      -0.71582900       17
O       -3.68493414      -5.12503576      -0.46858343      -1.03478600       18
O       -0.01168620       3.15561318      -5.30298042      -0.72378800       19
O        0.10678291      -5.17175627      -0.45716679      -1.00198900       20
O        3.56210756       3.02166176      -5.34634781      -0.65931100       21
O        3.72817945      -5.05458450      -0.49787238      -1.03311400       22
O        6.36826134       3.89380455      -4.99952459      -0.47337900       23
O        6.85666847      -4.82923031      -0.64667517      -1.06777500       24
O       -9.67162704       1.83640587       3.47385383      -0.97042300       25
O       -5.44574451       1.92472422       4.43456602      -0.78046200       26
O       -1.75497591       2.01688266       4.48552513      -0.78023400       27
O        1.77668691       2.02126908       4.49595118      -0.77643600       28
O        5.53883696       1.92144239       4.42033052      -0.78922700       29
O        9.59135437       1.74590981       3.81579709      -0.95264000       30
O       -9.46782494      -0.12687559       1.28080928      -1.13233900       31
O       -5.43658733      -0.17530699       1.21695840      -0.99083700       32
O       -1.88564456      -0.09006536       1.19868255      -0.95294800       33
O        1.82186043      -0.03853508       1.18070495      -0.94127700       34
O        5.45870352      -0.12100522       1.19883263      -0.98175600       35
O        9.63810539      -0.13419709       1.41478443      -1.13792900       36
O       -9.49330807      -2.86994958      -1.34424925      -0.90174000       37
O       -5.15611744      -2.33883095      -2.02025914      -0.92618200       38
O       -1.85087574      -2.34289765      -2.08996582      -0.98241800       39
O        1.75706065      -2.29890609      -2.07675958      -0.98779300       40
O        5.27696562      -2.22710395      -1.94534218      -0.98075400       41
O        9.60470200      -2.84419823      -1.25741267      -0.95079600       42
O       -9.07695961       3.07345819       0.83558857      -1.10587700       43
O       -5.27460909       2.20852160       1.96881306      -0.96921300       44
O       -1.75485730       2.30330253       2.04674792      -0.96489900       45
O        1.80310774       2.33877993       2.06320930      -0.95334300       46
O        5.14716816       2.24996424       2.00841904      -0.91378200       47
O        9.52430344       2.86339974       1.25160372      -0.91482900       48
O       -9.62584019       0.16371366      -1.49624515      -1.12072400       49
O       -5.26723433       0.00022940      -1.19738591      -0.95114800       50
O       -1.85297775       0.05779568      -1.27544940      -0.97462400       51
O        1.87990749       0.13612360      -1.30797780      -0.99156700       52
O        5.45529509       0.18315454      -1.27363801      -0.96674100       53
O        9.57424450       0.22564387      -1.41647518      -1.12252800       54
O       -9.53850079      -1.84782290      -3.90300703      -0.96700700       55
O       -5.58387518      -1.96180654      -4.44495296      -0.79254700       56
O       -1.76979363      -2.05137968      -4.53970432      -0.78663100       57
O        1.77937400      -2.04806924      -4.52988720      -0.78877400       58
O        5.53437471      -1.96472526      -4.41596031      -0.77799700       59
O        9.63128281      -1.72141218      -3.81257319      -0.97065900       60
O       -6.86063957       4.97734070       0.85963738      -0.98036100       61
O       -6.44211340      -3.83903193       5.03848124      -0.47386100       62
O       -3.78631520       5.06600428       0.52705586      -1.03176000       63
O       -3.58653212      -2.99938846       5.36719227      -0.66130500       64
O       -0.09900258       5.16350079       0.45976663      -1.00726600       65
O       -0.04657757      -3.16140342       5.34167099      -0.75842000       66
O        3.69156504       5.07938910       0.47539136      -1.04346600       67
O        3.51502490      -3.13679862       5.35881805      -0.76334000       68
O        6.78186321       4.92785597       0.58482659      -1.02295800       69
O        6.33231306      -3.83271861       5.04225588      -0.48933100       70
O       -7.69290018       2.96994233      -2.56239319      -0.87621800       71
O       -7.55853367      -5.63122416       1.61146128      -0.85453900       72
O       -3.50368762       2.97524548      -2.82057738      -0.97608000       73
O       -3.51818943      -5.43092108       2.08474493      -1.00439800       74
O       -0.03426360       3.04872441      -2.87306881      -1.01276200       75
O       -0.02262377      -5.37181091       2.05871820      -0.96410100       76
O        3.29185081       3.04730272      -2.87854743      -0.98217500       77
O        3.46691060      -5.28400946       2.05071950      -0.90506900       78
O        7.82137918       2.87818575      -2.52601027      -0.94409000       79
O        7.71134329      -5.66604805       1.51781881      -0.73519600       80
O       -7.51127195      -7.23893690      -1.20224738      -0.86902500       81
O       -3.57065678      -7.35716152      -1.43286955      -0.78849700       82
O        0.01767533      -7.40348339      -1.38624680      -0.78575600       83
O        3.63042331      -7.31316376      -1.39419532      -0.81880000       84
O        7.61110020      -7.09566164      -1.23360586      -0.87019700       85
O       -9.12491417       5.18148851       2.78223705      -0.88487400       86
O       -5.45011377       5.68099594       3.05778980      -1.07680900       87
O       -1.84718966       5.57939291       2.73736310      -1.08732300       88
O        1.83779085       5.53542328       2.64998746      -1.10006400       89
O        5.53063154       5.55391741       2.92267036      -1.10572600       90
O        9.04963779       5.24332857       2.81530952      -0.89802800       91
O       -5.53795671       3.30023694      -0.87108219      -0.95565400       92
O       -5.40275764      -4.58940268       4.25067949      -0.53224800       93
O       -1.83596468       3.43987584      -0.69756371      -0.93757200       94
O       -1.84700835      -5.15819311       4.39947128      -0.93848000       95
O        1.76908588       3.47564483      -0.64559752      -0.94497900       96
O        1.65098429      -5.14590788       4.38518810      -0.91020700       97
O        5.46064234       3.40153193      -1.25764930      -0.86550500       98
O        5.35733318      -4.67607546       4.25999880      -0.48470600       99
O       -8.53971767       1.16192710      -4.43397570      -0.96343900      100
O       -5.60120344       1.24039066      -3.95248461      -1.11565400      101
O       -5.15943432      -7.35521936       0.83846134      -0.93465700      102
O       -1.81577849       1.09892166      -4.34548378      -1.06848000      103
O       -1.76457632      -7.37800026       0.85120124      -0.93770500      104
O        1.76768291       1.09172809      -4.37867975      -1.07242300      105
O        1.71149659      -7.35463572       0.86892843      -0.92205800      106
O        5.54960775       1.31720042      -3.97960663      -1.10672000      107
O        5.13500977      -7.20429182       0.89706820      -0.90751600      108
O        8.48109913       1.29327857      -4.56880426      -0.93090800      109
O       -7.22617340       3.70912457       3.21863151      -1.05648600      110
O       -3.61147690       3.98188615       3.44643760      -1.10393800      111
O        0.00162211       4.10297775       3.53120875      -1.08668700      112
O        3.61879802       4.03196812       3.55839944      -1.08895100      113
O        7.26981497       3.59846520       2.99870348      -1.05505800      114
O       -7.29733515       1.53252947      -0.20142929      -1.00008900      115
O       -3.63330364       1.90669215      -0.14209035      -1.03289000      116
O       -0.01642062       1.87100112      -0.16611381      -1.03879000      117
O        3.64625931       1.97417080      -0.16512768      -1.04762600      118
O        7.25562191       1.99482906      -0.02228864      -1.11139900      119
O       -7.37805700      -0.63282043      -2.70741320      -0.93701600      120
O       -3.67168307      -0.25968981      -3.47454715      -1.06310200      121
O       -0.01248548      -0.24023180      -3.30131602      -1.01160000      122
O        3.66278911      -0.22514096      -3.44399476      -1.01685100      123
O        7.41012239      -0.50274909      -2.89786983      -0.83742200      124
O       -7.37187243       0.61439061       2.85085273      -0.85567400      125
O       -3.63182187       0.19039989       3.37398171      -1.03637700      126
O        0.01481880       0.16870885       3.24569583      -1.03507400      127
O        3.62755680       0.14471199       3.35277510      -1.07110700      128
O        7.37746668       0.52431190       2.81055164      -0.90931100      129
O       -7.23629427      -2.08498740       0.01501276      -1.12047000      130
O       -3.66248989      -2.04993606       0.19539091      -1.02877400      131
O       -0.07154815      -1.85002744       0.10340607      -0.96026700      132
O        3.55808949      -1.82491839       0.05840279      -0.90222000      133
O        7.55472708      -1.74780822       0.05549742      -1.06473600      134
O       -7.24286079      -3.71510720      -3.07603717      -1.06255100      135
O       -3.59506536      -4.07751989      -3.58948231      -1.09049000      136
O        0.02149646      -4.11129045      -3.51725173      -1.09915200      137
O        3.65203953      -3.99021268      -3.43923235      -1.11648200      138
O        7.33044100      -3.59106922      -3.03257918      -1.06337000      139
O       -8.50085354      -1.20381558       4.46236897      -0.94096200      140
O       -5.17155838       7.23242426      -0.85029203      -0.88694400      141
O       -5.56197071      -1.29686522       3.97471309      -1.11229100      142
O       -1.70900857       7.33621979      -0.87557828      -0.90083100      143
O       -1.77354264      -1.08769298       4.39587641      -1.05586300      144
O        1.78870285       7.35439920      -0.84900427      -0.92489600      145
O        1.79314601      -1.06653070       4.46863127      -1.04055900      146
O        5.16433382       7.32231951      -0.85505939      -0.93333000      147
O        5.54544020      -1.23480678       4.07938862      -1.10515500      148
O        8.55166054      -1.20886862       4.51564932      -0.95510700      149
O       -5.34525394       4.76696062      -4.25495625      -0.47771000      150
O       -5.45124197      -3.46895814       1.24696004      -0.91339300      151
O       -1.75759649       5.12084770      -4.28990507      -0.93338100      152
O       -1.77196538      -3.50763941       0.66670275      -0.99308500      153
O        1.76405370       5.14242268      -4.32787323      -0.94106500      154
O        1.77783430      -3.36425400       0.72658467      -1.03031600      155
O        5.34713936       4.65564728      -4.20755005      -0.51601000      156
O        5.36032820      -3.24110436       1.08411956      -1.02560100      157
O       -9.01485157      -5.33513117      -2.81767392      -0.88108500      158
O       -5.47343302      -5.61054277      -2.92046332      -1.09849000      159
O       -1.80623889      -5.54244518      -2.65790820      -1.09162400      160
O        1.88369644      -5.57887602      -2.73800206      -1.07429500      161
O        5.55080652      -5.58061743      -2.94625354      -1.09149200      162
O        9.10943890      -5.21803427      -2.86951828      -0.89226100      163
Ti      -7.59010363       3.78896737      -0.71052617       1.66182700       78
Ti       8.97308636       1.28514707       0.13670489       1.71536400       79
Ti      -8.92311382      -1.28146064      -0.22619644       1.71379300       80
Ti       7.23199940      -3.59606099       0.87726521       1.75020600       81
