180
Properties=species:S:1:pos:R:3:initial_charges:R:1:tags:I:1 pbc="F F F"
Ti       2.72120285       5.31676245      -3.87315989       1.80636800        0
Ti       1.90926123       5.50543737      -0.54909474       1.88721600        1
Ti       1.02657187       5.54555082       2.96832633       1.85999000        2
Ti       2.35567594       1.61316359      -4.08451366       1.88863600        3
Ti       1.64048088       1.62146580      -0.50275588       1.97553600        4
Ti      -7.92671919       2.33499432      -2.74708843       1.64843500        5
Ti       0.60507816       1.88676345       3.30719948       1.92785900        6
Ti       2.12909603      -1.95894611      -4.17179537       1.89609300        7
Ti       1.13847458      -1.97956824      -0.38380387       1.98032500        8
Ti      -8.07213783      -1.31527698      -2.66417217       1.79906300        9
Ti       0.41675061      -1.84198356       3.32460809       1.93026600       10
Ti      -8.63457298      -1.35340846       0.64416093       1.72885000       11
Ti       1.68580723      -5.43871260      -4.00688076       1.80060600       12
Ti       0.95587927      -5.63254547      -0.40631691       1.87946900       13
Ti       0.34193182      -5.46875095       3.19089007       1.85215000       14
Ti       6.86529350       3.32843781      -1.40528095       1.82749200       15
Ti      -2.83874345       3.91610646      -3.60417390       1.85589100       16
Ti       6.08065462       3.34331250       2.43014526       1.86550900       17
Ti      -3.59745145       3.70793295      -0.02070708       1.91927100       18
Ti      -4.29876280       4.19113684       3.51992726       1.80883900       19
Ti       6.72444725      -0.73184323      -1.66733897       1.85755000       20
Ti      -2.87962437       0.06039109      -3.53492856       1.91589500       21
Ti       5.61136436      -0.36654529       2.75227928       1.87394900       22
Ti      -4.10923529       0.11591841       0.07739630       1.97837900       23
Ti      -4.72783804       0.34073642       3.72005653       1.88462600       24
Ti       6.31369543      -4.30927086      -1.32733417       1.71133700       25
Ti      -3.29830217      -3.69881344      -3.45109010       1.87459100       26
Ti       5.59314108      -4.01159430       2.47215128       1.86095800       27
Ti      -4.16522169      -3.81799197      -0.00530881       1.92227700       28
Ti      -4.94302225      -3.44892311       3.62227416       1.85664600       29
Ti      -0.34196812       5.46873569      -3.19070697       1.85204100       30
Ti      -0.95535749       5.63308048       0.40670371       1.87966400       31
Ti      -1.68574607       5.43854046       4.00691605       1.80078400       32
Ti       8.63463497       1.35333085      -0.64426863       1.72871100       33
Ti      -0.41699237       1.84205818      -3.32463813       1.93019600       34
Ti       8.07227135       1.31513071       2.66405892       1.79885200       35
Ti      -1.13862777       1.97994554       0.38362998       1.98033600       36
Ti      -2.12919927       1.95884991       4.17183352       1.89588900       37
Ti      -0.60534632      -1.88671839      -3.30744219       1.92792100       38
Ti       7.92665243      -2.33505678       2.74716187       1.64849500       39
Ti      -1.64034855      -1.62137818       0.50277728       1.97548800       40
Ti      -2.35581803      -1.61323750       4.08466864       1.88874000       41
Ti      -1.02640688      -5.54563284      -2.96808648       1.86009700       42
Ti      -1.90906203      -5.50541878       0.54904193       1.88709800       43
Ti      -2.72119474      -5.31688499       3.87314892       1.80637700       44
Ti       4.94295263       3.44880795      -3.62230825       1.85675300       45
Ti       4.16533995       3.81794810       0.00535021       1.92215400       46
Ti      -5.59330654       4.01173258      -2.47215343       1.86063400       47
Ti       3.29838395       3.69862103       3.45118904       1.87454500       48
Ti      -6.31384706       4.30947351       1.32728899       1.71127900       49
Ti       4.72768736      -0.34081775      -3.72017026       1.88458300       50
Ti       4.10943174      -0.11609931      -0.07736007       1.97852600       51
Ti      -5.61132002       0.36665913      -2.75177574       1.87377300       52
Ti       2.87944102      -0.06037652       3.53473115       1.91587600       53
Ti      -6.72440529       0.73189771       1.66701651       1.85751300       54
Ti       4.29882812      -4.19124842      -3.52015781       1.80862700       55
Ti       3.59724140      -3.70822883       0.02057275       1.91934300       56
Ti      -6.08047676      -3.34340143      -2.43009520       1.86557200       57
Ti       2.83849096      -3.91600537       3.60407519       1.85603100       58
Ti      -6.86535215      -3.32861805       1.40517104       1.82754400       59
O        0.99360919       5.82455492      -4.37555122      -0.88899700        0
O        0.06430373       5.77597761      -1.36385572      -1.09885800        1
O       -0.99498278       5.16603756       2.38553762      -1.05541300        2
O        0.59640878       1.76553726      -4.78550339      -0.78459700        3
O        8.96498585       1.15828121       1.19465530      -0.86253500        4
O       -0.36811358       1.86966658      -1.18197870      -0.99146500        5
O       -1.38129723       1.94947326       2.59247613      -0.97299000        6
O        0.24585989      -1.80619442      -4.78856039      -0.79152500        7
O        8.78547096      -2.26622820       1.47382200      -0.52772500        8
O       -0.60567480      -1.95316887      -1.08251858      -0.99586700        9
O       -1.62425315      -1.42735779       2.53888702      -0.97266000       10
O       -0.12332295      -6.23158503      -4.30622339      -0.89451800       11
O       -1.00972140      -6.05056810      -1.06499493      -1.09829300       12
O       -2.67888427      -5.97036600       2.28093696      -1.04658000       13
O        4.82213116       3.67003393      -1.78264344      -1.01747100       14
O       -4.55590820       4.13418102      -4.07349825      -0.82633800       15
O        3.93072391       3.26359415       1.86758554      -0.99663500       16
O       -5.45750141       4.22865200      -0.54084450      -1.01437600       17
O       -5.93370438       4.41596460       3.43562984      -0.77408300       18
O        4.66086340      -0.27931571      -1.93513644      -0.97494600       19
O       -4.77807236       0.29277918      -4.21759129      -0.79624100       20
O        3.78347039      -0.14093943       1.97471893      -0.94905200       21
O       -5.75797224       0.41986433      -0.30846274      -0.98254300       22
O       -6.45566559       0.53222519       3.60089707      -0.77926800       23
O        4.17786646      -4.26523590      -1.67729747      -1.02718300       24
O       -5.20619917      -3.75875163      -3.89653659      -0.80476200       25
O        3.36230016      -3.93582487       1.93512213      -0.99376800       26
O       -6.08003569      -3.84641027      -0.50504905      -1.06843100       27
O       -6.76133585      -3.38993335       3.21767282      -0.80710600       28
O       -2.02544141       5.61664963      -3.81132436      -0.82232000       29
O       -2.13805938       6.63193274       0.21881936      -0.77213700       30
O       -3.36527729       5.90753984       3.86232090      -0.87628900       31
O        6.81207609       1.55133855      -0.98187429      -0.91689000       32
O       -2.31596994       1.97660613      -3.90568662      -1.05090500       33
O        6.23299074       1.44788396       2.27309680      -0.94707500       34
O       -3.40527153       1.99823272       0.14177686      -0.98337000       35
O       -4.08279133       2.22736430       3.86775756      -1.08634700       36
O        6.82088470      -2.37521815      -1.45316327      -0.84650800       37
O       -2.64420795      -1.72068834      -3.92900205      -1.05650000       38
O        5.95811367      -2.18445468       2.41392231      -0.97938100       39
O       -3.52831984      -1.70945370       0.22854373      -0.99379400       40
O       -4.42217064      -1.61568832       4.09089565      -1.09342200       41
O       -2.90030980      -5.42527819      -3.41843772      -0.82751200       42
O       -3.72208595      -5.47727442      -0.18685018      -0.78581000       43
O       -4.57691240      -5.00523996       4.41205454      -0.89302100       44
O        2.69378090       3.51840377      -3.81155753      -1.04746700       45
O        2.03698516       3.78233099      -0.54538566      -0.97052700       46
O       -7.25323105       4.18393850      -2.96079636      -0.84361700       47
O        1.22871757       3.69836974       3.22444606      -1.02108300       48
O       -7.37921143       5.40411139       1.16868365      -0.54374600       49
O        2.75059938      -0.20119801      -4.57644367      -1.09162300       50
O        1.79777634      -0.12083782      -0.35014227      -0.98516200       51
O       -7.65410042       0.42940521      -3.32962751      -1.10247300       52
O        1.02531946       0.00400437       3.08514476      -1.04389100       53
O       -8.57891369       0.13401002       1.54637730      -0.77642100       54
O        2.19167399      -3.80658436      -4.63379812      -1.04698500       55
O        1.68900049      -3.83936930      -0.19535567      -0.97440800       56
O       -7.84964323      -3.08629417      -3.02388477      -0.83674500       57
O        0.56743604      -3.69776559       3.17254233      -1.02051000       58
O       -8.69333649      -3.10930562       1.17478859      -0.84405300       59
O        6.76127672       3.38964677      -3.21779513      -0.80719400       60
O        6.08005619       3.84620047       0.50499839      -1.06830500       61
O       -3.36288881       3.93530750      -1.93525362      -0.99364800       62
O        5.20637465       3.75846314       3.89657927      -0.80469200       63
O       -4.17798996       4.26527548       1.67710233      -1.02726800       64
O        6.45556211      -0.53209656      -3.60113859      -0.77908900       65
O        5.75812960      -0.42000204       0.30813810      -0.98297400       66
O       -3.78316045       0.14084104      -1.97468734      -0.94896100       67
O        4.77805758      -0.29255876       4.21787262      -0.79609500       68
O       -4.66101313       0.27909943       1.93499255      -0.97490900       69
O        5.93376446      -4.41595507      -3.43569207      -0.77368000       70
O        5.45723915      -4.22813702       0.54074126      -1.01469600       71
O       -3.93077683      -3.26361394      -1.86754680      -0.99658600       72
O        4.55576372      -4.13393593       4.07335377      -0.82632800       73
O       -4.82205868      -3.66982174       1.78258550      -1.01744200       74
O        2.67902970       5.97031450      -2.28097129      -1.04655400       75
O        1.00994468       6.05044413       1.06518996      -1.09827800       76
O        0.12335932       6.23160553       4.30627632      -0.89450600       77
O        1.62410378       1.42725313      -2.53872418      -0.97238200       78
O        0.60557854       1.95365620       1.08237386      -0.99592700       79
O       -0.24601364       1.80610859       4.78844786      -0.79135600       80
O        1.38122129      -1.94943881      -2.59250998      -0.97341100       81
O        0.36780033      -1.86964571       1.18192828      -0.99150300       82
O       -0.59644473      -1.76528513       4.78557110      -0.78465400       83
O        0.99529803      -5.16656923      -2.38534427      -1.05539000       84
O       -0.06407641      -5.77583313       1.36395550      -1.09885200       85
O       -0.99368352      -5.82467794       4.37570143      -0.88902200       86
O        8.69334221       3.10917091      -1.17491126      -0.84401800       87
O       -0.56742501       3.69783378      -3.17206025      -1.02038300       88
O        7.84977531       3.08618641       3.02382731      -0.83670300       89
O       -1.68958437       3.83995652       0.19512381      -0.97480400       90
O       -2.19196367       3.80645585       4.63384056      -1.04695000       91
O        8.57899666      -0.13395415      -1.54665172      -0.77629100       92
O       -1.02538419      -0.00394181      -3.08552837      -1.04387200       93
O        7.65428257      -0.42940360       3.32977676      -1.10228100       94
O       -1.79761684       0.12092312       0.35044619      -0.98510300       95
O       -2.75077271       0.20115919       4.57646275      -1.09162800       96
O        7.37889433      -5.40402889      -1.16844559      -0.54368700       97
O       -1.22858286      -3.69847846      -3.22406483      -1.02124500       98
O        7.25305891      -4.18403149       2.96064401      -0.84360200       99
O       -2.03683662      -3.78228760       0.54535532      -0.97037900      100
O       -2.69378519      -3.51849914       3.81185079      -1.04745400      101
O        4.57680845       5.00505257      -4.41226959      -0.89306600      102
O        3.72221184       5.47725344       0.18696183      -0.78581300      103
O        2.90045547       5.42512226       3.41869831      -0.82733600      104
O        4.42203808       1.61560178      -4.09085941      -1.09332800      105
O        3.52837133       1.70944893      -0.22859605      -0.99383500      106
O       -5.95816469       2.18454933      -2.41356373      -0.97934100      107
O        2.64416313       1.72055697       3.92891431      -1.05645700      108
O       -6.82070303       2.37526178       1.45264745      -0.84681900      109
O        4.08265734      -2.22749019      -3.86798286      -1.08648900      110
O        3.40543151      -1.99843597      -0.14165896      -0.98351500      111
O       -6.23288965      -1.44797921      -2.27319574      -0.94685400      112
O        2.31593442      -1.97648060       3.90557075      -1.05097200      113
O       -6.81208611      -1.55146742       0.98174852      -0.91662300      114
O        3.36547160      -5.90759850      -3.86264825      -0.87598900      115
O        2.14005446      -6.62964678      -0.21760285      -0.77202300      116
O        2.02527547      -5.61668015       3.81158996      -0.82242200      117
O       -8.78581905       2.26624656      -1.47392917      -0.52781700      118
O       -8.96484089      -1.15840268      -1.19474161      -0.86249500      119
