180
Properties=species:S:1:pos:R:3:initial_charges:R:1:tags:I:1 pbc="F F F"
Ti      -3.24845362       3.19309831      -5.11148310       1.77265300        0
Ti       0.40296829       3.84692907      -4.51938581       1.85298000        1
Ti       3.63932252       4.40184212      -3.83857512       1.78531700        2
Ti      -3.13729572       0.02179978      -4.35938644       1.86057500        3
Ti       0.67865056       0.61728728      -3.64400887       1.92720700        4
Ti       4.40866566       1.25072289      -2.91878486       1.92419400        5
Ti       7.76578188       2.63648272      -1.90695119       1.78008300        6
Ti      -2.81185436      -3.41409159      -4.12523079       1.87406600        7
Ti       1.09659743      -2.74903297      -3.34641671       1.90724200        8
Ti       5.07175684      -2.09003615      -2.39345121       1.92791400        9
Ti       8.57991600      -0.59275597      -1.95876896       1.68446200       10
Ti      -2.09061098      -6.65934515      -3.29568100       1.76459400       11
Ti       1.60745895      -6.01855612      -2.53465819       1.67528000       12
Ti       5.19081306      -5.38006496      -1.84076107       1.75793100       13
Ti      -6.77829838       5.32645082      -0.64597732       1.70955800       14
Ti      -2.95574045       5.83768368       0.12473351       1.84951500       15
Ti       0.39634252       6.33204889       0.83972615       1.66456200       16
Ti       4.23093605       6.76403522       1.47113144       1.81516100       17
Ti      -6.99289465       1.78946757      -0.17863257       1.90159700       18
Ti      -2.71752667       2.40886331       0.75729722       1.97426700       19
Ti       1.07959020       2.81145620       1.42583108       1.97547000       20
Ti       4.71659708       3.59912491       1.92408550       1.89229900       21
Ti      -5.83971310      -1.70931864       0.03069332       1.89075500       22
Ti      -2.20542240      -1.11719108       0.92006534       1.97427700       23
Ti       1.53610337      -0.75798225       1.66608429       1.99201300       24
Ti       5.25882864      -0.09472737       2.43339205       1.90793500       25
Ti      -5.07747602      -5.15451622       1.38617802       1.92248500       26
Ti      -1.39287400      -4.63452148       1.30646527       1.88897800       27
Ti       1.88013732      -3.99445081       2.51831579       1.87056000       28
Ti       5.46523714      -3.35870814       3.27047968       1.83978800       29
Ti      -5.46546507       3.35840106      -3.26990247       1.83993200       30
Ti      -1.87982023       3.99418139      -2.51784277       1.87047100       31
Ti       1.39337480       4.63309288      -1.30633914       1.88895400       32
Ti       5.07718182       5.15366030      -1.38668787       1.92249800       33
Ti      -5.25815630       0.09428075      -2.43362832       1.90798200       34
Ti      -1.53587914       0.75835234      -1.66419792       1.99192500       35
Ti       2.20636463       1.11705375      -0.91955751       1.97428200       36
Ti       5.84028864       1.71027899      -0.03070975       1.89072500       37
Ti      -4.71653748      -3.59951901      -1.92341948       1.89222000       38
Ti      -1.07992303      -2.81177902      -1.42498887       1.97540800       39
Ti       2.71663404      -2.40852213      -0.75605863       1.97422400       40
Ti       6.99442816      -1.78781867       0.17747585       1.90158700       41
Ti      -4.23125219      -6.76474619      -1.47174680       1.81503000       42
Ti      -0.39676252      -6.33339930      -0.83986288       1.66452600       43
Ti       2.95545292      -5.83739614      -0.12458142       1.84960000       44
Ti       6.77841759      -5.32464647       0.64470488       1.70947700       45
Ti      -5.19136477       5.38030958       1.84005296       1.75806900       46
Ti      -1.60807455       6.01807928       2.53469348       1.67555400       47
Ti       2.09057617       6.65830660       3.29534745       1.76476800       48
Ti      -8.58080864       0.59352291       1.95569944       1.68449700       49
Ti      -5.07317162       2.09042621       2.39381218       1.92803300       50
Ti      -1.09655809       2.74901104       3.34723186       1.90733100       51
Ti       2.81236959       3.41355729       4.12567711       1.87408500       52
Ti      -7.76638889      -2.63553166       1.90549064       1.78007500       53
Ti      -4.40893793      -1.25058949       2.91863775       1.92421000       54
Ti      -0.67909551      -0.61674452       3.64478922       1.92711100       55
Ti       3.13897586      -0.02176498       4.36044598       1.86062900       56
Ti      -3.63927388      -4.40212488       3.83792710       1.78531900       57
Ti      -0.40292680      -3.84729671       4.51937485       1.85301000       58
Ti       3.24847221      -3.19325423       5.11231899       1.77265000       59
O       -3.52901149       3.17178249      -3.23641586      -1.00110000        0
O        0.14182645       4.06889153      -2.64950728      -1.05941400        1
O        3.17000961       4.45709991      -2.01044703      -1.04166300        2
O        6.95034981       4.79438734      -1.40148425      -0.60876100        3
O       -3.48717976       0.30413836      -2.39351559      -0.98600100        4
O        0.29457325       0.75982970      -1.70451236      -1.01011900        5
O        4.04083538       1.20226145      -0.98991382      -0.99519100        6
O        7.52947903       2.25465274      -0.08601494      -0.78509000        7
O       -2.92809153      -3.36809301      -2.16258192      -0.99076200        8
O        0.76796335      -2.45576978      -1.56249058      -0.96802900        9
O        4.58185911      -2.36799073      -0.60824728      -1.00368100       10
O        8.55230713      -1.07420969      -0.05182972      -0.81630300       11
O       -2.46515250      -6.13006210      -1.51064980      -1.01836100       12
O        1.36620045      -6.86868906      -0.62257421      -1.00520100       13
O        4.76725960      -5.37945461       0.04276933      -1.04574900       14
O        7.82046986      -6.32721949       1.20094454      -0.54994300       15
O       -6.66291046       6.00409412       1.44570935      -0.80693300       16
O       -3.60384059       6.41400528       2.00680542      -1.05401400       17
O        0.26151121       6.84006166       2.73829913      -1.04581100       18
O        3.52338839       7.74571705       2.96641231      -0.90442500       19
O       -6.78570461       1.45459902       1.78318894      -1.06372000       20
O       -3.02498555       2.16876388       2.54511094      -1.01815000       21
O        0.76811677       3.04958820       3.33122683      -1.05413700       22
O        4.45303106       3.56098747       4.05497360      -0.77438900       23
O       -6.04546690      -2.01834822       2.08574510      -1.02850100       24
O       -2.41895366      -1.11627126       2.82790589      -1.04619000       25
O        1.32762015      -0.71694756       3.54388452      -1.06866200       26
O        5.02723360       0.07054462       4.21920633      -0.80755400       27
O       -4.99571371      -5.44927406       3.25625634      -0.80947200       28
O       -1.94368982      -4.74272776       4.69754028      -0.97201600       29
O        1.54820895      -4.09215117       4.62559223      -1.15172100       30
O        4.97638845      -3.62131310       5.14241362      -0.81911500       31
O       -7.26256084       3.52849436      -0.30813915      -1.05688600       32
O       -2.38823366       4.41628981       0.87224603      -1.02598100       33
O        0.51049018       4.56120920       0.53171176      -0.98258300       34
O        5.12167358       5.52276754       2.18306875      -0.80969600       35
O       -6.00406122       0.01420053      -0.53320903      -1.04343900       36
O       -2.28321791       0.71369976       0.21936339      -0.98360500       37
O        1.57055175       1.11172092       1.18130839      -0.98023400       38
O        5.42153454       1.91374230       1.93881619      -1.03378400       39
O       -4.96784258      -3.70299315      -0.11896028      -1.08241000       40
O       -1.77876091      -2.83301592       0.47611547      -1.00582200       41
O        1.85219705      -2.65299296       1.26097000      -1.03479600       42
O        6.06432152      -1.82324743       2.33440924      -1.04948500       43
O       -4.71710634      -6.57587385       0.37633061      -0.93233600       44
O       -1.17104936      -6.31246901       1.04536235      -0.82340300       45
O        2.37036633      -5.41218042       1.75275958      -0.83788000       46
O        5.94853830      -4.72006321       2.51858234      -0.77528300       47
O       -3.05467606       1.52757096      -5.56216192      -0.85862000       48
O        0.70629710       2.17969084      -4.80166101      -0.84763900       49
O        4.22107697       2.79917717      -4.11428070      -0.88200800       50
O        7.80916166       4.40826082      -2.61625147      -0.40959800       51
O       -2.67736650      -1.57963657      -4.81232071      -0.85782500       52
O        0.98202306      -0.94339633      -4.23991489      -0.84958500       53
O        4.88424873      -0.28022680      -3.42118025      -0.86456900       54
O        8.72215271       1.31657076      -2.45158315      -0.94813400       55
O       -2.31282330      -5.29141426      -4.34699106      -0.89310400       56
O        1.59922922      -4.42502499      -3.60425687      -0.90858800       57
O        5.33685684      -3.74045682      -2.85914016      -0.89825200       58
O        9.55907059      -1.44986045      -2.78829646      -0.57895200       59
O       -7.82070303       6.32863903      -1.20229936      -0.54992100       60
O       -4.76749754       5.38159466      -0.04393775      -1.04571700       61
O       -1.36627936       6.86826324       0.62217915      -1.00521400       62
O        2.46513844       6.12828350       1.51064110      -1.01781000       63
O       -8.55097580       1.07569265       0.04888085      -0.81625900       64
O       -4.58265352       2.36858368       0.60848773      -1.00349500       65
O       -0.76811856       2.45469046       1.56331527      -0.96802600       66
O        2.92833900       3.36740518       2.16317034      -0.99091100       67
O       -7.52921772      -2.25493503       0.08508900      -0.78500500       68
O       -4.04005671      -1.20451880       0.99033773      -0.99518100       69
O       -0.29451740      -0.75925857       1.70551479      -1.01032900       70
O        3.48808980      -0.30620944       2.39433908      -0.98591300       71
O       -6.94992924      -4.79499531       1.40075207      -0.60873300       72
O       -3.16956186      -4.45837927       2.00980091      -1.04167200       73
O       -0.14134592      -4.07008457       2.64987874      -1.05959000       74
O        3.52894020      -3.17183900       3.23733473      -1.00099500       75
O       -4.97672272       3.62043667      -5.14165211      -0.81896200       76
O       -1.54813421       4.09217882      -4.62491989      -1.15160800       77
O        1.94353902       4.74258471      -4.69784784      -0.97194800       78
O        4.99569893       5.44912481      -3.25652218      -0.80950200       79
O       -5.02711773      -0.06860246      -4.21857214      -0.80755000       80
O       -1.32744670       0.71730125      -3.54297709      -1.06863600       81
O        2.41876841       1.11837494      -2.82723880      -1.04616600       82
O        6.04460096       2.01955080      -2.08596659      -1.02844400       83
O       -4.45231962      -3.56059670      -4.05522013      -0.77439600       84
O       -0.76820368      -3.04870105      -3.33089423      -1.05428400       85
O        3.02419758      -2.16822958      -2.54460454      -1.01819800       86
O        6.78493357      -1.45372164      -1.78356314      -1.06368100       87
O       -3.52372551      -7.74641848      -2.96722698      -0.90433600       88
O       -0.26170895      -6.84133482      -2.73875356      -1.04562900       89
O        3.60325027      -6.41379261      -2.00676918      -1.05403400       90
O        6.66275597      -6.00308371      -1.44623005      -0.80679200       91
O       -5.94863892       4.72048521      -2.51916027      -0.77533100       92
O       -2.36980844       5.41182804      -1.75230837      -0.83789500       93
O        1.17226422       6.31113005      -1.04477024      -0.82343500       94
O        4.71653938       6.57491207      -0.37721667      -0.93247600       95
O       -6.06395435       1.82333755      -2.33245873      -1.04951600       96
O       -1.85183299       2.65291071      -1.26012826      -1.03482500       97
O        1.78123140       2.83308172      -0.47444025      -1.00607300       98
O        4.96862316       3.70216203       0.11887759      -1.08231700       99
O       -5.42099380      -1.91355574      -1.93858206      -1.03363300      100
O       -1.57000232      -1.11189353      -1.17983651      -0.98013500      101
O        2.28203130      -0.71371508      -0.21891721      -0.98358700      102
O        6.00536203      -0.01415165       0.53469378      -1.04346700      103
O       -5.12122250      -5.52282000      -2.18377709      -0.80955200      104
O       -0.51164764      -4.56251907      -0.53214210      -0.98252200      105
O        2.38695312      -4.41637278      -0.87130570      -1.02556900      106
O        7.26431322      -3.52683544       0.30848816      -1.05683000      107
O       -9.56103516       1.45058775       2.78399181      -0.57894800      108
O       -5.33773851       3.74106193       2.85916781      -0.89836600      109
O       -1.59962821       4.42486191       3.60478759      -0.90858800      110
O        2.31295872       5.29114580       4.34734821      -0.89317400      111
O       -8.72342682      -1.31563485       2.44913960      -0.94812600      112
O       -4.88503933       0.28048697       3.42071486      -0.86458800      113
O       -0.98195231       0.94408536       4.24125004      -0.84965400      114
O        2.67750931       1.58014929       4.81257534      -0.85775300      115
O       -7.80977201      -4.40785503       2.61425924      -0.40957800      116
O       -4.22097206      -2.79929852       4.11339808      -0.88210600      117
O       -0.70666456      -2.17994261       4.80113983      -0.84755600      118
O        3.05537295      -1.52734077       5.56286478      -0.85869100      119
