336
Properties=species:S:1:pos:R:3:initial_charges:R:1:tags:I:1 pbc="F F F"
Ti       4.85904837       5.05763054      -5.39048862       1.85235700        0
Ti       3.07055926       5.26589298      -2.07722664       1.95926300        1
Ti       1.34205842       5.56448221       1.37597847       1.97227200        2
Ti      -0.26077291       5.71449375       4.83836842       1.88519100        3
Ti       4.39288235       1.35763824      -5.40476608       1.89663700        4
Ti       2.54040790       1.60567784      -2.06560421       1.99732500        5
Ti       0.89748406       1.93457043       1.40060484       1.98932600        6
Ti      -7.88467121       2.91540933      -2.95866942       1.72281300        7
Ti      -0.95652568       2.05048513       5.00502110       1.94652100        8
Ti      -9.47632313       2.85482144      -0.00983729       1.78340100        9
Ti       3.85734248      -2.54722333      -5.30380392       1.90391400       10
Ti       2.13670492      -2.02822900      -1.97818530       2.00362100       11
Ti      -6.33145809      -1.28185868      -5.88694525       1.76280800       12
Ti       0.27290931      -1.85982466       1.50903046       1.98788700       13
Ti      -7.90359211      -0.99857056      -2.88264203       1.89386500       14
Ti      -1.52659774      -1.61914945       5.16693258       1.93884100       15
Ti      -9.57409096      -0.74755424       0.13660292       1.79406600       16
Ti       3.43507981      -6.19850016      -5.25018835       1.85386100       17
Ti       1.39267468      -5.93341732      -2.09807682       1.96363900       18
Ti      -0.07565012      -5.46837997       1.49259830       1.96048200       19
Ti      -2.02879405      -5.28898573       5.35082531       1.86909100       20
Ti       8.39712048       6.44495296      -1.73706973       1.62266800       21
Ti      -0.66841125       7.49402332      -5.79162359       1.70429100       22
Ti       6.88370037       6.89743614       1.60640109       1.82472000       23
Ti      -1.64224946       7.61348581      -2.22935295       1.76692900       24
Ti       5.41344404       7.05339098       4.74643993       1.79843400       25
Ti      -3.65442491       8.46997166       0.73606795       1.74905600       26
Ti      -5.52933168       7.79655266       3.83215618       1.81701100       27
Ti       8.33557510       2.88489223      -1.49675775       1.91843400       28
Ti      -0.67829955       3.85251951      -5.68970394       1.88167500       29
Ti       6.53530598       3.34347844       1.81892025       1.93546800       30
Ti      -2.54305315       4.02839136      -2.35953522       2.02198700       31
Ti       4.76924801       3.56916523       5.39230824       1.89608400       32
Ti      -4.19046307       4.08164501       0.86972409       2.00232900       33
Ti      -5.95490313       4.53986835       3.85961914       1.88649100       34
Ti       7.61084652      -1.06658411      -1.67650747       1.83613500       35
Ti      -1.15012515       0.10314902      -5.77949476       1.91451700       36
Ti       5.67744732      -0.86093497       2.18484879       1.93298300       37
Ti      -2.92032862       0.34114936      -2.55106902       2.01429600       38
Ti       4.18587828      -0.45597410       5.69315863       1.88783300       39
Ti      -4.60155869       0.44691786       0.73551244       1.99115800       40
Ti      -6.25326872       0.93459105       4.08440495       1.91946200       41
Ti       7.34801674      -5.17253876      -1.33343422       1.91307200       42
Ti      -1.73509216      -3.59001136      -5.69594383       1.91379800       43
Ti       5.60659456      -4.87101078       1.94453919       1.96526500       44
Ti      -3.46598816      -3.28517342      -2.40432453       2.02345900       45
Ti       3.47314119      -4.41812992       5.50649214       1.89206700       46
Ti      -5.13503647      -3.14218307       0.83408910       2.03568700       47
Ti      -6.83953238      -2.69406676       4.07534027       1.87947100       48
Ti       6.20959711      -8.53092861      -1.43309641       1.62038000       49
Ti      -2.04449558      -7.15618467      -5.52885056       1.78708500       50
Ti       4.60570192      -8.32314205       1.90505278       1.81018600       51
Ti      -3.60422444      -7.00490141      -2.07792711       1.79870800       52
Ti       2.85937619      -7.78879070       5.19126797       1.79772500       53
Ti      -4.99170732      -6.82898903       1.21719444       1.79907700       54
Ti      -7.11757135      -6.44279289       4.06952143       1.69323700       55
Ti       1.96234751       5.17636013      -5.05255604       1.86980200       56
Ti       0.19976185       5.43230772      -1.53614295       1.95794400       57
Ti      -1.55136275       5.76151180       1.86719358       1.91919600       58
Ti      -3.10040355       6.11903048       5.18986130       1.82872500       59
Ti       9.52392578       0.53469098      -0.11599369       1.80161700       60
Ti       1.52220893       1.49706244      -5.18277788       1.92708200       61
Ti       8.05819702       1.06520796       2.96926999       1.90292400       62
Ti      -0.34450996       1.75897062      -1.50962448       1.99976000       63
Ti       6.42114353       1.27888978       5.96028566       1.76297500       64
Ti      -2.02248406       2.09152508       1.92289793       1.98243000       65
Ti      -3.80537724       2.58133578       5.22495174       1.90388900       66
Ti       9.15901375      -3.11264706      -0.23740222       1.79761200       67
Ti       0.98110402      -2.20667148      -5.12212467       1.94711900       68
Ti       7.69321632      -3.13093543       2.85392737       1.80024000       69
Ti      -0.74486727      -1.89354253      -1.59965885       1.99602600       70
Ti      -2.54793215      -1.59007263       2.01318598       2.00014700       71
Ti      -4.36954927      -1.22813737       5.34929419       1.90155000       72
Ti       0.52972227      -5.87972212      -5.19039631       1.86208200       73
Ti      -1.35988224      -5.47685480      -1.25146997       1.95069800       74
Ti      -2.87258124      -5.18137217       2.28079987       1.94748300       75
Ti      -4.93463898      -4.95138264       5.42858887       1.84512500       76
Ti       7.21192789       6.35222387      -4.02886152       1.71085600       77
Ti       5.22068024       6.81055784      -1.09068847       1.78393900       78
Ti      -3.42818427       7.84357595      -5.08538866       1.80809200       79
Ti       3.68457770       7.02508163       1.99811780       1.79850900       80
Ti      -4.81619024       8.29144859      -2.01270247       1.83731500       81
Ti       2.71132946       7.39440870       5.56264257       1.71975200       82
Ti      -6.59079170       8.21740150       1.25304914       1.80767500       83
Ti       6.92771053       2.70876074      -4.07578564       1.88858100       84
Ti       5.10401201       2.94286108      -0.92718512       2.05116500       85
Ti      -3.48252559       4.40125322      -5.34421825       1.88435000       86
Ti       3.55128956       3.29637837       2.36435795       2.01228500       87
Ti      -5.59118223       4.71804094      -1.88844907       1.91429200       88
Ti       1.83527470       3.73450661       5.64715576       1.87201600       89
Ti      -7.66118813       4.87718296       1.06329656       1.88606300       90
Ti       6.16322851      -0.89366424      -4.14141130       1.92476200       91
Ti       4.65989733      -0.65007293      -0.70268112       1.96788000       92
Ti      -4.08634996       0.42447096      -5.64626169       1.88130900       93
Ti       2.74934745      -0.35755593       2.51150441       2.01213000       94
Ti      -5.79125357       0.95819372      -1.98399401       1.92193600       95
Ti       1.24697900       0.02858042       5.79707479       1.90670800       96
Ti      -7.66977406       1.01852143       1.53658700       1.86927600       97
Ti       5.77169514      -4.55993748      -3.75288153       1.88746300       98
Ti       3.86819267      -4.32055998      -0.85434741       2.05588300       99
Ti      -4.68202877      -3.60087252      -5.44742680       1.89183000      100
Ti       2.61571407      -4.02289915       2.50410867       2.01679800      101
Ti      -6.50145960      -3.37650323      -1.94114196       1.89383900      102
Ti       0.73945767      -3.63282990       5.82336473       1.88477500      103
Ti      -8.28843403      -2.99444056       1.57258368       1.90727600      104
Ti       4.99850321      -8.19243431      -3.73931146       1.70196500      105
Ti       3.04500151      -7.97103214      -0.87794960       1.78600500      106
Ti      -4.77969599      -7.11106825      -4.85546541       1.79295200      107
Ti       1.70819163      -7.57171583       2.40598869       1.79261100      108
Ti      -6.57719898      -6.97621775      -1.53103602       1.81302600      109
Ti       0.16027260      -7.14126301       5.79733896       1.77654400      110
Ti      -8.17297077      -6.56249237       1.74833059       1.65431800      111
O        3.19755602       5.34421206      -6.32106113      -0.83804700        0
O        1.42570817       5.53847980      -3.04240108      -1.02789000        1
O       -0.23970439       5.69080210       0.42839178      -1.01798700        2
O       -2.03634405       5.90703630       3.75007415      -1.02927000        3
O        2.76098394       1.35076702      -6.42744350      -0.79192300        4
O        9.33411121       0.57670772       1.62992084      -0.93170700        5
O        0.94608194       1.74002934      -2.98198152      -0.95070700        6
O        7.76790714       1.12584281       4.84159851      -0.91508500        7
O       -0.84912986       2.01107216       0.45468786      -0.98491700        8
O       -2.71970153       2.42976379       3.85224485      -0.95559800        9
O        2.27040529      -2.36645007      -6.34015369      -0.79035000       10
O        8.98867130      -3.12661052       1.51668501      -0.92246700       11
O        0.36671817      -2.04011250      -2.99635434      -0.95410700       12
O        7.89020300      -1.96530020       4.33509874      -0.39994100       13
O       -1.35940301      -1.69115281       0.56202769      -0.96103300       14
O       -3.20667934      -1.41347289       3.99777913      -0.96858200       15
O        1.74348807      -6.04732227      -6.35773134      -0.75463500       16
O       -0.19809981      -5.74058056      -2.86441255      -0.93671500       17
O       -1.82259488      -5.37974453       0.64357734      -0.99230600       18
O       -3.62569571      -5.16501522       4.11541224      -1.04174700       19
O        6.57776737       7.02898216      -2.33008504      -1.10668700       20
O       -2.41079044       8.25451183      -6.43882179      -0.86885700       21
O        5.16614723       7.32730627       0.79675156      -1.13103400       22
O       -4.44599628       8.76004601      -3.72714758      -1.06827600       23
O        3.72533393       7.32200003       3.84331250      -1.05295100       24
O       -5.51685143       8.83843613      -0.22129031      -1.08428700       25
O       -6.78994226       8.92355919       2.91890049      -0.93387500       26
O        6.28863525       2.82987452      -2.41754270      -0.98620800       27
O       -2.07516265       4.36128283      -6.66450644      -0.81383300       28
O        4.58974648       3.13374352       0.90284568      -1.02100200       29
O       -4.01220942       4.38948679      -3.34778762      -1.01728300       30
O        2.74963522       3.58726692       4.24130344      -0.91971500       31
O       -5.92942381       4.69476318       0.04945573      -0.99979900       32
O       -7.47052526       4.47716331       2.77405882      -0.82104800       33
O        5.70459032      -0.76723886      -2.43960690      -0.97173800       34
O       -2.72420526       0.13679382      -6.79568481      -0.81695000       35
O        4.04582071      -0.52219105       1.14567983      -1.01807600       36
O       -4.47572470       0.61804205      -3.45085406      -0.97244400       37
O        2.22125793      -0.20404312       4.39077711      -0.92575000       38
O       -6.21482897       0.75852114      -0.06775651      -0.94574700       39
O       -7.99101782       1.21448004       3.26011872      -0.79040900       40
O        5.38796997      -4.43588018      -1.94498849      -0.97818600       41
O       -3.31417441      -3.51533031      -6.65689993      -0.82515000       42
O        3.81861377      -4.24664450       1.00272846      -1.00347800       43
O       -5.06047297      -3.45245600      -3.36157393      -1.00332100       44
O        1.69966328      -3.96712399       4.38578796      -0.99443400       45
O       -6.82033014      -3.12212062       0.03894186      -1.00784900       46
O       -8.49838734      -2.62736011       3.45518470      -0.82092300       47
O        4.27502584      -8.74481964      -2.03710794      -1.10943600       48
O       -3.72830796      -7.92196894      -6.10479593      -0.93495800       49
O        2.89474535      -8.28947926       1.00654030      -1.12671000       50
O       -5.51648617      -7.60061550      -3.17908025      -1.16679400       51
O        1.32626367      -7.10578489       4.30338812      -1.04145200       52
O       -7.59704494      -7.29791689      -0.16268821      -0.97760900       53
O       -8.72931576      -6.97973251       3.53451228      -0.86794300       54
O        8.62052536       4.60639620      -1.48285246      -0.92904700       55
O        0.19526538       5.72379780      -5.70122576      -1.15480200       56
O        6.67542124       5.13522959       1.81376016      -0.90710700       57
O       -1.70448351       5.80081940      -2.09820938      -1.00430500       58
O        5.27738047       5.31921864       5.10143042      -0.92864800       59
O       -2.51103163       6.94166183       1.14806771      -1.03325000       60
O       -6.30597448       6.37874603       4.38631916      -0.89911100       61
O        7.97410107       0.69731659      -1.06815171      -0.95017900       62
O       -0.35292459       1.89846241      -5.95390701      -1.09357900       63
O        6.48265696       0.96594542       2.15116882      -0.93569000       64
O       -2.16611862       2.15224075      -2.25024390      -1.01482400       65
O        4.79197502       1.41863263       5.15797091      -0.93986500       66
O       -4.10784435       2.39931273       1.10402477      -1.02416100       67
O       -5.83956480       2.79993725       4.54731607      -1.09821200       68
O        7.58471584      -2.89424276      -1.06380522      -0.93663800       69
O       -0.86344206      -1.88076150      -5.91363335      -1.07757900       70
O        6.02090979      -2.75711870       2.12312675      -0.97970800       71
O       -2.68478203      -1.56796527      -2.37232161      -1.01966200       72
O        4.00178671      -2.41324329       5.55681181      -0.62309900       73
O       -4.39664793      -1.33050680       1.11028326      -1.02050100       74
O       -6.34305573      -0.85947400       4.63484526      -1.10630500       75
O        7.13688612      -6.88605785      -1.29797959      -0.92465700       76
O       -1.42105138      -5.53682375      -6.03226089      -1.03549400       77
O        5.07638788      -6.68548155       2.20561051      -0.90379600       78
O       -3.31182480      -5.26989555      -1.89779270      -0.98085600       79
O        3.67534852      -6.25705385       5.66820002      -0.94069600       80
O       -4.89118195      -5.03842592       1.21635079      -0.99403600       81
O       -6.68855286      -4.59363127       4.41303587      -1.11302400       82
O        5.71785021       6.53887892      -5.43157291      -0.86030600       83
O        3.72554278       7.11544609      -1.85684741      -0.74840800       84
O        2.16215324       7.41074657       1.38787472      -0.69969000       85
O        1.77619684       8.62419796       5.60646105      -0.60122100       86
O        5.07107925       2.99486208      -5.61225224      -1.05805500       87
O        3.34055567       3.31555462      -1.86658788      -1.02996200       88
O       -4.86677647       3.41558123      -6.10250664      -0.35557700       89
O        1.46305943       3.64744425       1.59782982      -0.98979500       90
O       -7.16315031       4.77482510      -2.45635748      -0.75500800       91
O       -0.22301571       4.00954437       5.01873493      -0.92024100       92
O       -9.39920425       4.61698866       0.59345800      -0.84695400       93
O        4.62700033      -0.76902711      -5.43812418      -1.09350000       94
O        2.67662573      -0.35451040      -1.94364309      -0.99690400       95
O       -5.60830450       0.30450016      -6.57671881      -0.81148900       96
O        1.03785038      -0.10774725       1.65467346      -1.01124500       97
O       -7.48696327       0.94117892      -2.75496483      -1.05691200       98
O       -0.81493640       0.27717036       5.11073446      -1.01827400       99
O       -9.71099758       1.08321142       0.72288078      -1.12547500      100
O        4.24444818      -4.43578959      -5.45015907      -1.09742400      101
O        2.29670382      -4.18793631      -1.78561628      -1.03179400      102
O       -6.13766623      -3.05313706      -6.37621164      -0.83500800      103
O        0.45372063      -3.79067421       1.62315881      -1.01306500      104
O       -7.95891571      -3.02124691      -2.70473742      -0.75443200      105
O       -1.33206713      -3.46566272       5.22426605      -1.04917400      106
O       -9.87999535      -2.41517448       0.82610255      -0.86678700      107
O        3.96629620      -7.83606577      -5.45306826      -0.84727000      108
O        1.55050409      -7.82496500      -1.72974420      -0.74974300      109
O        0.17772992      -7.65188742       1.83219159      -0.73763100      110
O       -1.48105741      -7.30579090       5.38523626      -0.77098200      111
O        8.85016441       6.84493923      -3.57981634      -0.85568800      112
O        7.87452459       7.17891741       0.22349046      -0.93839200      113
O       -1.78028107       7.63934088      -4.13886881      -1.09657900      114
O        6.55576944       7.57378721       3.35170245      -1.14833400      115
O       -3.10477352       8.40971661      -1.23104334      -1.15018300      116
O        4.56602812       7.78879356       6.11895895      -0.91919100      117
O       -5.00101805       7.53562260       2.01508045      -1.08658300      118
O        8.53188801       2.50846481      -3.41078401      -0.81253300      119
O        6.90392017       2.98804164      -0.01261502      -1.01055000      120
O       -1.69130826       3.99008894      -4.27761030      -0.98611900      121
O        5.11396122       3.29817772       3.32012129      -0.98166400      122
O       -3.58506989       4.27051687      -0.87764591      -0.95963700      123
O        3.34871435       3.71917391       6.62961054      -0.82772400      124
O       -4.81701851       4.71926260       2.62141895      -0.87504700      125
O        7.93432570      -1.11950004      -3.40561295      -0.78443100      126
O        6.18725586      -0.91819626       0.02717002      -0.85348200      127
O       -2.10944414       0.27594510      -4.38423920      -0.91189400      128
O        4.58065414      -0.70328832       3.54945278      -0.89996300      129
O       -3.94449282       0.51629639      -0.99196821      -1.00649700      130
O        2.75297475      -0.08468112       6.81353474      -0.82398200      131
O       -5.76919460       0.78910923       2.40897727      -0.95763400      132
O        7.38698101      -4.92281723      -3.34226274      -0.80935200      133
O        6.38811731      -4.97208548       0.44491154      -0.99598900      134
O       -2.66319704      -3.63288736      -4.25748158      -0.93360700      135
O        3.99907827      -4.39435625       3.51054645      -1.01546600      136
O       -4.48748922      -3.12041783      -0.89452082      -0.97861800      137
O        2.15414906      -4.06002665       6.81940937      -0.77828000      138
O       -6.23456907      -2.78266048       2.44736886      -0.96416300      139
O        6.46793032      -8.98667812      -3.39465785      -0.84418000      140
O        5.50183535      -8.92868710       0.57424217      -0.91960000      141
O       -3.09537625      -6.90968132      -3.97781873      -1.03709700      142
O        3.38610864      -8.58766937       3.59491205      -1.15518000      143
O       -4.90806341      -7.31864357      -0.62934852      -1.12311300      144
O        1.62899029      -8.28685760       6.41219282      -0.92163400      145
O       -6.38462067      -7.13100338       2.42112970      -1.09904400      146
O        3.74071956       5.12146759      -3.93908119      -1.05021500      147
O        1.94518459       5.37114954      -0.59918308      -1.01202500      148
O        0.28683376       5.91938257       2.87895060      -1.05109300      149
O       -1.52627039       6.24889755       6.11040783      -0.82646000      150
O        3.24818277       1.46339476      -4.01616144      -0.97019700      151
O        1.40948033       1.69924104      -0.52060705      -0.96904300      152
O       -0.43881586       2.02170658       2.89995480      -0.98515900      153
O       -2.27935266       2.38154960       6.24975443      -0.81122300      154
O        2.71289849      -2.41158009      -3.92990112      -0.96631000      155
O        0.86374348      -2.00504017      -0.55209827      -0.97292900      156
O       -0.88061070      -1.70526886       2.98530960      -0.95274300      157
O       -2.78789949      -1.35365582       6.39821672      -0.79003300      158
O        2.08245993      -6.11097765      -3.94015789      -1.04269000      159
O        0.35963219      -5.71411228      -0.42746341      -1.01419400      160
O       -1.27971017      -5.41157341       3.08569980      -0.94331500      161
O       -3.21771097      -5.13115740       6.53209972      -0.75492100      162
O        0.45314935       8.55176830      -5.79603052      -0.49612000      163
O       -0.11182644       7.71578264      -1.70881379      -0.68766400      164
O       -3.18239188       9.75968552       1.44283032      -0.62597800      165
O       -4.02008438       7.68362284       4.88645029      -0.95423900      166
O        9.91447926       2.18532777      -0.75702178      -0.86476300      167
O        1.38131344       3.52770305      -5.17367172      -0.99862800      168
O        8.04539013       2.88487792       2.67459321      -0.82582100      169
O       -0.33902878       3.80608273      -1.66022968      -0.99330100      170
O        6.17069960       3.04479647       6.42264986      -0.82862000      171
O       -2.33932710       4.13049793       1.57827103      -0.90124100      172
O       -4.10359383       4.57051420       5.34789705      -1.12609100      173
O        9.57007408      -1.29360151      -0.79426861      -1.12488800      174
O        0.82131755      -0.21226108      -5.14829016      -1.06764200      175
O        7.58694172      -1.00945687       3.14595819      -0.72847300      176
O       -0.91089481       0.07527003      -1.65016401      -1.01942100      177
O        5.65402174      -0.31932014       6.65597916      -0.79880200      178
O       -2.73011827       0.42091417       1.82461298      -0.97400200      179
O       -4.58641481       0.79862541       5.31167555      -1.09147400      180
O        9.12332058      -4.83031559      -0.86899191      -0.87354800      181
O        0.29267806      -3.96557117      -5.11609221      -1.06600700      182
O        7.10330343      -4.76246548       3.14975166      -0.84287400      183
O       -1.49661601      -3.63442755      -1.56965101      -1.00152600      184
O        4.92533541      -3.46379805       6.19563341      -0.36326200      185
O       -3.19102716      -3.33011556       1.96289659      -1.00948600      186
O       -5.15525866      -2.88273191       5.54940987      -1.07166600      187
O       -0.44876859      -7.67812538      -5.16686344      -0.80844100      188
O       -2.08645487      -7.38115644      -1.43029010      -0.71708800      189
O       -3.52316666      -7.05554962       2.01586914      -0.76251900      190
O       -5.68677807      -6.44845915       5.62375593      -0.81503200      191
O        6.82605648       4.54694462      -4.47705030      -1.09770600      192
O        4.95594406       5.06447601      -1.10747743      -0.99025100      193
O       -3.96348262       6.18208551      -5.42180967      -0.92372000      194
O        3.32537031       5.28497982       2.02067018      -1.00645500      195
O       -5.13611174       6.63587141      -2.02260971      -0.88274000      196
O        1.52304196       5.79033661       5.59005594      -1.11988900      197
O       -7.55726194       6.80358791       0.98730206      -0.89880300      198
O        6.28149128       0.96309644      -4.67056322      -1.11887000      199
O        4.43680763       1.25125873      -1.04955280      -1.00885500      200
O       -3.88698411       2.40348768      -5.46787977      -0.63593400      201
O        2.68923354       1.60056877       2.28479290      -1.02133900      202
O       -5.83251381       2.71385264      -2.12901711      -0.98253500      203
O        0.89858681       1.97063148       5.84241056      -1.09779100      204
O       -7.76569366       2.76146388       0.65327090      -1.00343600      205
O        5.72441626      -2.73662376      -4.37711763      -1.10194500      206
O        3.80764031      -2.37508225      -1.01826239      -1.02274200      207
O       -4.69578886      -1.44970548      -5.11782837      -0.94327600      208
O        2.22365665      -2.17056751       2.31634212      -1.00426300      209
O       -6.36026287      -1.21736372      -2.12043357      -0.89211200      210
O        0.38255852      -1.74307227       5.98637724      -1.09662700      211
O       -8.01048565      -0.80092198       1.09709239      -0.95413900      212
O        4.95863533      -6.30103683      -3.83928704      -1.10056700      213
O        3.45936751      -6.27148914      -0.96515310      -1.00526100      214
O       -5.07562590      -5.46792793      -5.35395479      -0.91233200      215
O        1.85021091      -5.78640747       2.06088233      -0.95947200      216
O       -6.59526730      -5.28060722      -1.80129731      -0.89837800      217
O       -0.11759714      -5.40107775       6.20723534      -1.03843100      218
O       -8.44927692      -4.74860096       1.54333842      -0.92851100      219
O       -8.31598663       3.07159495      -4.42635489      -0.46178600      220
O       -9.40340519       2.86478162      -1.70221341      -0.86966400      221
O       -7.65788364      -1.06282449      -4.73100615      -0.92149800      222
O       -9.31648254      -0.81212723      -1.57377005      -0.90465300      223
